************************************** 
*   Model Generated by Chen Hongcai  * 
*   Hong Kong Polytechic University  * 
*         All Rights Reserved        * 
*       Email:  hc.chen@live.com     * 
************************************** 
* Model generated on 02-May-2017 
* MODEL FORMAT: PSpice 
.SUBCKT induced_paper NP01 NP09 NP15 NN01 NN09 
+ NN15 NG01 NG09 NG15 
* *  Branch  NP01 - NTMP0000000001 
R_R1  NP01  nU_1  32.914993m  TC=0,0 
V_Ui1  nU_1  nR_1  STIMULUS=U_IND_0000000001 
R_V1  nR_1  nV_1  23.280268m  TC=0,0 
L_V1  nR_1  nV_1  0.014646uH 
R_V2  nV_1  nV_2  7.852787m  TC=0,0 
L_V2  nV_1  nV_2  0.073723uH 
L_L1  nV_2  NTMP0000000001  6.519695uH 
K_K1  L_L1  L_L2  0.1050 
K_K2  L_L1  L_L3  0.0397 
K_K3  L_L1  L_L4  0.0258 
K_K4  L_L1  L_L5  0.0192 
K_K5  L_L1  L_L6  0.0153 
K_K6  L_L1  L_L7  0.0127 
K_K7  L_L1  L_L8  0.0109 
K_K8  L_L1  L_L9  0.0095 
K_K9  L_L1  L_L10  0.0084 
K_K10  L_L1  L_L11  0.0076 
K_K11  L_L1  L_L12  0.0069 
K_K12  L_L1  L_L13  0.0063 
K_K13  L_L1  L_L14  0.0058 
K_K14  L_L1  L_L15  0.0054 
K_K15  L_L1  L_L16  0.0051 
K_K16  L_L1  L_L17  0.0047 
K_K17  L_L1  L_L18  0.0045 
K_K18  L_L1  L_L19  0.0042 
K_K19  L_L1  L_L20  0.0040 
K_K20  L_L1  L_L21  0.0038 
K_K21  L_L1  L_L22  0.0036 
K_K22  L_L1  L_L23  0.0034 
K_K23  L_L1  L_L24  0.0033 
K_K24  L_L1  L_L25  0.0032 
K_K25  L_L1  L_L26  0.0030 
K_K26  L_L1  L_L27  0.0029 
K_K27  L_L1  L_L28  0.0028 
K_K28  L_L1  L_L29  0.0027 
K_K29  L_L1  L_L30  0.0026 
K_K30  L_L1  L_L31  0.0025 
K_K31  L_L1  L_L32  0.0024 
K_K32  L_L1  L_L33  0.0024 
K_K33  L_L1  L_L34  0.0023 
K_K34  L_L1  L_L35  0.0022 
K_K35  L_L1  L_L36  0.0022 
K_K36  L_L1  L_L37  0.0021 
K_K37  L_L1  L_L38  0.0020 
K_K38  L_L1  L_L39  0.0020 
K_K39  L_L1  L_L40  0.0019 
K_K40  L_L1  L_L41  0.0019 
K_K41  L_L1  L_L42  0.0018 
K_K42  L_L1  L_L43  0.0018 
K_K43  L_L1  L_L44  0.0018 
K_K44  L_L1  L_L45  0.0017 
K_K45  L_L1  L_L46  0.0017 
K_K46  L_L1  L_L47  0.0017 
K_K47  L_L1  L_L48  0.0016 
K_K48  L_L1  L_L49  0.0016 
K_K49  L_L1  L_L50  0.0015 
K_K50  L_L1  L_L51  0.0015 
K_K51  L_L1  L_L52  0.0015 
K_K52  L_L1  L_L53  0.0015 
K_K53  L_L1  L_L54  0.0014 
K_K54  L_L1  L_L55  0.0014 
K_K55  L_L1  L_L56  0.0014 
K_K56  L_L1  L_L57  0.0014 
K_K57  L_L1  L_L58  0.0013 
K_K58  L_L1  L_L59  0.0013 
K_K59  L_L1  L_L60  0.0013 
K_K60  L_L1  L_L61  0.0013 
K_K61  L_L1  L_L62  0.0013 
K_K62  L_L1  L_L63  0.0012 
K_K63  L_L1  L_L64  0.0012 
K_K64  L_L1  L_L65  0.0012 
K_K65  L_L1  L_L66  0.0012 
K_K66  L_L1  L_L67  0.0011 
K_K67  L_L1  L_L68  0.0011 
K_K68  L_L1  L_L69  0.0011 
K_K69  L_L1  L_L70  0.0011 
K_K70  L_L1  L_L71  0.0011 
K_K71  L_L1  L_L72  0.0011 
K_K72  L_L1  L_L73  0.0011 
K_K73  L_L1  L_L74  0.0010 
K_K74  L_L1  L_L75  0.0010 
K_K75  L_L1  L_L76  0.0010 
K_K76  L_L1  L_L139  0.1569 
K_K77  L_L1  L_L140  0.0812 
K_K78  L_L1  L_L141  0.0389 
K_K79  L_L1  L_L142  0.0256 
K_K80  L_L1  L_L143  0.0191 
K_K81  L_L1  L_L144  0.0152 
K_K82  L_L1  L_L145  0.0127 
K_K83  L_L1  L_L146  0.0109 
K_K84  L_L1  L_L147  0.0095 
K_K85  L_L1  L_L148  0.0084 
K_K86  L_L1  L_L149  0.0076 
K_K87  L_L1  L_L150  0.0069 
K_K88  L_L1  L_L151  0.0063 
K_K89  L_L1  L_L152  0.0058 
K_K90  L_L1  L_L153  0.0054 
K_K91  L_L1  L_L154  0.0051 
K_K92  L_L1  L_L155  0.0047 
K_K93  L_L1  L_L156  0.0045 
K_K94  L_L1  L_L157  0.0042 
K_K95  L_L1  L_L158  0.0040 
K_K96  L_L1  L_L159  0.0038 
K_K97  L_L1  L_L160  0.0036 
K_K98  L_L1  L_L161  0.0034 
K_K99  L_L1  L_L162  0.0033 
K_K100  L_L1  L_L163  0.0032 
K_K101  L_L1  L_L164  0.0030 
K_K102  L_L1  L_L165  0.0029 
K_K103  L_L1  L_L166  0.0028 
K_K104  L_L1  L_L167  0.0027 
K_K105  L_L1  L_L168  0.0026 
K_K106  L_L1  L_L169  0.0025 
K_K107  L_L1  L_L170  0.0024 
K_K108  L_L1  L_L171  0.0024 
K_K109  L_L1  L_L172  0.0023 
K_K110  L_L1  L_L173  0.0022 
K_K111  L_L1  L_L174  0.0022 
K_K112  L_L1  L_L175  0.0021 
K_K113  L_L1  L_L176  0.0020 
K_K114  L_L1  L_L177  0.0020 
K_K115  L_L1  L_L178  0.0019 
K_K116  L_L1  L_L179  0.0019 
K_K117  L_L1  L_L180  0.0018 
K_K118  L_L1  L_L181  0.0018 
K_K119  L_L1  L_L182  0.0018 
K_K120  L_L1  L_L183  0.0017 
K_K121  L_L1  L_L184  0.0017 
K_K122  L_L1  L_L185  0.0016 
K_K123  L_L1  L_L186  0.0016 
K_K124  L_L1  L_L187  0.0016 
K_K125  L_L1  L_L188  0.0015 
K_K126  L_L1  L_L189  0.0015 
K_K127  L_L1  L_L190  0.0015 
K_K128  L_L1  L_L191  0.0015 
K_K129  L_L1  L_L192  0.0014 
K_K130  L_L1  L_L193  0.0014 
K_K131  L_L1  L_L194  0.0014 
K_K132  L_L1  L_L195  0.0014 
K_K133  L_L1  L_L196  0.0013 
K_K134  L_L1  L_L197  0.0013 
K_K135  L_L1  L_L198  0.0013 
K_K136  L_L1  L_L199  0.0013 
K_K137  L_L1  L_L200  0.0012 
K_K138  L_L1  L_L201  0.0012 
K_K139  L_L1  L_L202  0.0012 
K_K140  L_L1  L_L203  0.0012 
K_K141  L_L1  L_L204  0.0012 
K_K142  L_L1  L_L205  0.0011 
K_K143  L_L1  L_L206  0.0011 
K_K144  L_L1  L_L207  0.0011 
K_K145  L_L1  L_L208  0.0011 
K_K146  L_L1  L_L209  0.0011 
K_K147  L_L1  L_L210  0.0011 
K_K148  L_L1  L_L211  0.0011 
K_K149  L_L1  L_L212  0.0010 
K_K150  L_L1  L_L213  0.0010 
K_K151  L_L1  L_L214  0.0010 
* *  Branch  NTMP0000000001 - NTMP0000000002 
R_R2  NTMP0000000001  nU_2  32.914993m  TC=0,0 
V_Ui2  nU_2  nR_2  STIMULUS=U_IND_0000000002 
R_V3  nR_2  nV_3  23.280268m  TC=0,0 
L_V3  nR_2  nV_3  0.014646uH 
R_V4  nV_3  nV_4  7.852787m  TC=0,0 
L_V4  nV_3  nV_4  0.073723uH 
L_L2  nV_4  NTMP0000000002  6.519695uH 
K_K152  L_L2  L_L3  0.1050 
K_K153  L_L2  L_L4  0.0397 
K_K154  L_L2  L_L5  0.0258 
K_K155  L_L2  L_L6  0.0192 
K_K156  L_L2  L_L7  0.0153 
K_K157  L_L2  L_L8  0.0127 
K_K158  L_L2  L_L9  0.0109 
K_K159  L_L2  L_L10  0.0095 
K_K160  L_L2  L_L11  0.0084 
K_K161  L_L2  L_L12  0.0076 
K_K162  L_L2  L_L13  0.0069 
K_K163  L_L2  L_L14  0.0063 
K_K164  L_L2  L_L15  0.0058 
K_K165  L_L2  L_L16  0.0054 
K_K166  L_L2  L_L17  0.0051 
K_K167  L_L2  L_L18  0.0047 
K_K168  L_L2  L_L19  0.0045 
K_K169  L_L2  L_L20  0.0042 
K_K170  L_L2  L_L21  0.0040 
K_K171  L_L2  L_L22  0.0038 
K_K172  L_L2  L_L23  0.0036 
K_K173  L_L2  L_L24  0.0034 
K_K174  L_L2  L_L25  0.0033 
K_K175  L_L2  L_L26  0.0032 
K_K176  L_L2  L_L27  0.0030 
K_K177  L_L2  L_L28  0.0029 
K_K178  L_L2  L_L29  0.0028 
K_K179  L_L2  L_L30  0.0027 
K_K180  L_L2  L_L31  0.0026 
K_K181  L_L2  L_L32  0.0025 
K_K182  L_L2  L_L33  0.0024 
K_K183  L_L2  L_L34  0.0024 
K_K184  L_L2  L_L35  0.0023 
K_K185  L_L2  L_L36  0.0022 
K_K186  L_L2  L_L37  0.0022 
K_K187  L_L2  L_L38  0.0021 
K_K188  L_L2  L_L39  0.0020 
K_K189  L_L2  L_L40  0.0020 
K_K190  L_L2  L_L41  0.0019 
K_K191  L_L2  L_L42  0.0019 
K_K192  L_L2  L_L43  0.0018 
K_K193  L_L2  L_L44  0.0018 
K_K194  L_L2  L_L45  0.0018 
K_K195  L_L2  L_L46  0.0017 
K_K196  L_L2  L_L47  0.0017 
K_K197  L_L2  L_L48  0.0017 
K_K198  L_L2  L_L49  0.0016 
K_K199  L_L2  L_L50  0.0016 
K_K200  L_L2  L_L51  0.0015 
K_K201  L_L2  L_L52  0.0015 
K_K202  L_L2  L_L53  0.0015 
K_K203  L_L2  L_L54  0.0015 
K_K204  L_L2  L_L55  0.0014 
K_K205  L_L2  L_L56  0.0014 
K_K206  L_L2  L_L57  0.0014 
K_K207  L_L2  L_L58  0.0014 
K_K208  L_L2  L_L59  0.0013 
K_K209  L_L2  L_L60  0.0013 
K_K210  L_L2  L_L61  0.0013 
K_K211  L_L2  L_L62  0.0013 
K_K212  L_L2  L_L63  0.0013 
K_K213  L_L2  L_L64  0.0012 
K_K214  L_L2  L_L65  0.0012 
K_K215  L_L2  L_L66  0.0012 
K_K216  L_L2  L_L67  0.0012 
K_K217  L_L2  L_L68  0.0011 
K_K218  L_L2  L_L69  0.0011 
K_K219  L_L2  L_L70  0.0011 
K_K220  L_L2  L_L71  0.0011 
K_K221  L_L2  L_L72  0.0011 
K_K222  L_L2  L_L73  0.0011 
K_K223  L_L2  L_L74  0.0011 
K_K224  L_L2  L_L75  0.0010 
K_K225  L_L2  L_L76  0.0010 
K_K226  L_L2  L_L77  0.0010 
K_K227  L_L2  L_L139  0.0812 
K_K228  L_L2  L_L140  0.1569 
K_K229  L_L2  L_L141  0.0812 
K_K230  L_L2  L_L142  0.0389 
K_K231  L_L2  L_L143  0.0256 
K_K232  L_L2  L_L144  0.0191 
K_K233  L_L2  L_L145  0.0152 
K_K234  L_L2  L_L146  0.0127 
K_K235  L_L2  L_L147  0.0109 
K_K236  L_L2  L_L148  0.0095 
K_K237  L_L2  L_L149  0.0084 
K_K238  L_L2  L_L150  0.0076 
K_K239  L_L2  L_L151  0.0069 
K_K240  L_L2  L_L152  0.0063 
K_K241  L_L2  L_L153  0.0058 
K_K242  L_L2  L_L154  0.0054 
K_K243  L_L2  L_L155  0.0051 
K_K244  L_L2  L_L156  0.0047 
K_K245  L_L2  L_L157  0.0045 
K_K246  L_L2  L_L158  0.0042 
K_K247  L_L2  L_L159  0.0040 
K_K248  L_L2  L_L160  0.0038 
K_K249  L_L2  L_L161  0.0036 
K_K250  L_L2  L_L162  0.0034 
K_K251  L_L2  L_L163  0.0033 
K_K252  L_L2  L_L164  0.0032 
K_K253  L_L2  L_L165  0.0030 
K_K254  L_L2  L_L166  0.0029 
K_K255  L_L2  L_L167  0.0028 
K_K256  L_L2  L_L168  0.0027 
K_K257  L_L2  L_L169  0.0026 
K_K258  L_L2  L_L170  0.0025 
K_K259  L_L2  L_L171  0.0024 
K_K260  L_L2  L_L172  0.0024 
K_K261  L_L2  L_L173  0.0023 
K_K262  L_L2  L_L174  0.0022 
K_K263  L_L2  L_L175  0.0022 
K_K264  L_L2  L_L176  0.0021 
K_K265  L_L2  L_L177  0.0020 
K_K266  L_L2  L_L178  0.0020 
K_K267  L_L2  L_L179  0.0019 
K_K268  L_L2  L_L180  0.0019 
K_K269  L_L2  L_L181  0.0018 
K_K270  L_L2  L_L182  0.0018 
K_K271  L_L2  L_L183  0.0018 
K_K272  L_L2  L_L184  0.0017 
K_K273  L_L2  L_L185  0.0017 
K_K274  L_L2  L_L186  0.0016 
K_K275  L_L2  L_L187  0.0016 
K_K276  L_L2  L_L188  0.0016 
K_K277  L_L2  L_L189  0.0015 
K_K278  L_L2  L_L190  0.0015 
K_K279  L_L2  L_L191  0.0015 
K_K280  L_L2  L_L192  0.0015 
K_K281  L_L2  L_L193  0.0014 
K_K282  L_L2  L_L194  0.0014 
K_K283  L_L2  L_L195  0.0014 
K_K284  L_L2  L_L196  0.0014 
K_K285  L_L2  L_L197  0.0013 
K_K286  L_L2  L_L198  0.0013 
K_K287  L_L2  L_L199  0.0013 
K_K288  L_L2  L_L200  0.0013 
K_K289  L_L2  L_L201  0.0012 
K_K290  L_L2  L_L202  0.0012 
K_K291  L_L2  L_L203  0.0012 
K_K292  L_L2  L_L204  0.0012 
K_K293  L_L2  L_L205  0.0012 
K_K294  L_L2  L_L206  0.0011 
K_K295  L_L2  L_L207  0.0011 
K_K296  L_L2  L_L208  0.0011 
K_K297  L_L2  L_L209  0.0011 
K_K298  L_L2  L_L210  0.0011 
K_K299  L_L2  L_L211  0.0011 
K_K300  L_L2  L_L212  0.0011 
K_K301  L_L2  L_L213  0.0010 
K_K302  L_L2  L_L214  0.0010 
K_K303  L_L2  L_L215  0.0010 
* *  Branch  NTMP0000000002 - NTMP0000000003 
R_R3  NTMP0000000002  nU_3  32.914993m  TC=0,0 
V_Ui3  nU_3  nR_3  STIMULUS=U_IND_0000000003 
R_V5  nR_3  nV_5  23.280268m  TC=0,0 
L_V5  nR_3  nV_5  0.014646uH 
R_V6  nV_5  nV_6  7.852787m  TC=0,0 
L_V6  nV_5  nV_6  0.073723uH 
L_L3  nV_6  NTMP0000000003  6.519695uH 
K_K304  L_L3  L_L4  0.1050 
K_K305  L_L3  L_L5  0.0397 
K_K306  L_L3  L_L6  0.0258 
K_K307  L_L3  L_L7  0.0192 
K_K308  L_L3  L_L8  0.0153 
K_K309  L_L3  L_L9  0.0127 
K_K310  L_L3  L_L10  0.0109 
K_K311  L_L3  L_L11  0.0095 
K_K312  L_L3  L_L12  0.0084 
K_K313  L_L3  L_L13  0.0076 
K_K314  L_L3  L_L14  0.0069 
K_K315  L_L3  L_L15  0.0063 
K_K316  L_L3  L_L16  0.0058 
K_K317  L_L3  L_L17  0.0054 
K_K318  L_L3  L_L18  0.0051 
K_K319  L_L3  L_L19  0.0047 
K_K320  L_L3  L_L20  0.0045 
K_K321  L_L3  L_L21  0.0042 
K_K322  L_L3  L_L22  0.0040 
K_K323  L_L3  L_L23  0.0038 
K_K324  L_L3  L_L24  0.0036 
K_K325  L_L3  L_L25  0.0034 
K_K326  L_L3  L_L26  0.0033 
K_K327  L_L3  L_L27  0.0032 
K_K328  L_L3  L_L28  0.0030 
K_K329  L_L3  L_L29  0.0029 
K_K330  L_L3  L_L30  0.0028 
K_K331  L_L3  L_L31  0.0027 
K_K332  L_L3  L_L32  0.0026 
K_K333  L_L3  L_L33  0.0025 
K_K334  L_L3  L_L34  0.0024 
K_K335  L_L3  L_L35  0.0024 
K_K336  L_L3  L_L36  0.0023 
K_K337  L_L3  L_L37  0.0022 
K_K338  L_L3  L_L38  0.0022 
K_K339  L_L3  L_L39  0.0021 
K_K340  L_L3  L_L40  0.0020 
K_K341  L_L3  L_L41  0.0020 
K_K342  L_L3  L_L42  0.0019 
K_K343  L_L3  L_L43  0.0019 
K_K344  L_L3  L_L44  0.0018 
K_K345  L_L3  L_L45  0.0018 
K_K346  L_L3  L_L46  0.0018 
K_K347  L_L3  L_L47  0.0017 
K_K348  L_L3  L_L48  0.0017 
K_K349  L_L3  L_L49  0.0017 
K_K350  L_L3  L_L50  0.0016 
K_K351  L_L3  L_L51  0.0016 
K_K352  L_L3  L_L52  0.0015 
K_K353  L_L3  L_L53  0.0015 
K_K354  L_L3  L_L54  0.0015 
K_K355  L_L3  L_L55  0.0015 
K_K356  L_L3  L_L56  0.0014 
K_K357  L_L3  L_L57  0.0014 
K_K358  L_L3  L_L58  0.0014 
K_K359  L_L3  L_L59  0.0014 
K_K360  L_L3  L_L60  0.0013 
K_K361  L_L3  L_L61  0.0013 
K_K362  L_L3  L_L62  0.0013 
K_K363  L_L3  L_L63  0.0013 
K_K364  L_L3  L_L64  0.0013 
K_K365  L_L3  L_L65  0.0012 
K_K366  L_L3  L_L66  0.0012 
K_K367  L_L3  L_L67  0.0012 
K_K368  L_L3  L_L68  0.0012 
K_K369  L_L3  L_L69  0.0011 
K_K370  L_L3  L_L70  0.0011 
K_K371  L_L3  L_L71  0.0011 
K_K372  L_L3  L_L72  0.0011 
K_K373  L_L3  L_L73  0.0011 
K_K374  L_L3  L_L74  0.0011 
K_K375  L_L3  L_L75  0.0011 
K_K376  L_L3  L_L76  0.0010 
K_K377  L_L3  L_L77  0.0010 
K_K378  L_L3  L_L78  0.0010 
K_K379  L_L3  L_L139  0.0389 
K_K380  L_L3  L_L140  0.0812 
K_K381  L_L3  L_L141  0.1569 
K_K382  L_L3  L_L142  0.0812 
K_K383  L_L3  L_L143  0.0389 
K_K384  L_L3  L_L144  0.0256 
K_K385  L_L3  L_L145  0.0191 
K_K386  L_L3  L_L146  0.0152 
K_K387  L_L3  L_L147  0.0127 
K_K388  L_L3  L_L148  0.0109 
K_K389  L_L3  L_L149  0.0095 
K_K390  L_L3  L_L150  0.0084 
K_K391  L_L3  L_L151  0.0076 
K_K392  L_L3  L_L152  0.0069 
K_K393  L_L3  L_L153  0.0063 
K_K394  L_L3  L_L154  0.0058 
K_K395  L_L3  L_L155  0.0054 
K_K396  L_L3  L_L156  0.0051 
K_K397  L_L3  L_L157  0.0047 
K_K398  L_L3  L_L158  0.0045 
K_K399  L_L3  L_L159  0.0042 
K_K400  L_L3  L_L160  0.0040 
K_K401  L_L3  L_L161  0.0038 
K_K402  L_L3  L_L162  0.0036 
K_K403  L_L3  L_L163  0.0034 
K_K404  L_L3  L_L164  0.0033 
K_K405  L_L3  L_L165  0.0032 
K_K406  L_L3  L_L166  0.0030 
K_K407  L_L3  L_L167  0.0029 
K_K408  L_L3  L_L168  0.0028 
K_K409  L_L3  L_L169  0.0027 
K_K410  L_L3  L_L170  0.0026 
K_K411  L_L3  L_L171  0.0025 
K_K412  L_L3  L_L172  0.0024 
K_K413  L_L3  L_L173  0.0024 
K_K414  L_L3  L_L174  0.0023 
K_K415  L_L3  L_L175  0.0022 
K_K416  L_L3  L_L176  0.0022 
K_K417  L_L3  L_L177  0.0021 
K_K418  L_L3  L_L178  0.0020 
K_K419  L_L3  L_L179  0.0020 
K_K420  L_L3  L_L180  0.0019 
K_K421  L_L3  L_L181  0.0019 
K_K422  L_L3  L_L182  0.0018 
K_K423  L_L3  L_L183  0.0018 
K_K424  L_L3  L_L184  0.0018 
K_K425  L_L3  L_L185  0.0017 
K_K426  L_L3  L_L186  0.0017 
K_K427  L_L3  L_L187  0.0016 
K_K428  L_L3  L_L188  0.0016 
K_K429  L_L3  L_L189  0.0016 
K_K430  L_L3  L_L190  0.0015 
K_K431  L_L3  L_L191  0.0015 
K_K432  L_L3  L_L192  0.0015 
K_K433  L_L3  L_L193  0.0015 
K_K434  L_L3  L_L194  0.0014 
K_K435  L_L3  L_L195  0.0014 
K_K436  L_L3  L_L196  0.0014 
K_K437  L_L3  L_L197  0.0014 
K_K438  L_L3  L_L198  0.0013 
K_K439  L_L3  L_L199  0.0013 
K_K440  L_L3  L_L200  0.0013 
K_K441  L_L3  L_L201  0.0013 
K_K442  L_L3  L_L202  0.0012 
K_K443  L_L3  L_L203  0.0012 
K_K444  L_L3  L_L204  0.0012 
K_K445  L_L3  L_L205  0.0012 
K_K446  L_L3  L_L206  0.0012 
K_K447  L_L3  L_L207  0.0011 
K_K448  L_L3  L_L208  0.0011 
K_K449  L_L3  L_L209  0.0011 
K_K450  L_L3  L_L210  0.0011 
K_K451  L_L3  L_L211  0.0011 
K_K452  L_L3  L_L212  0.0011 
K_K453  L_L3  L_L213  0.0011 
K_K454  L_L3  L_L214  0.0010 
K_K455  L_L3  L_L215  0.0010 
K_K456  L_L3  L_L216  0.0010 
* *  Branch  NTMP0000000003 - NTMP0000000004 
R_R4  NTMP0000000003  nU_4  32.914993m  TC=0,0 
V_Ui4  nU_4  nR_4  STIMULUS=U_IND_0000000004 
R_V7  nR_4  nV_7  23.280268m  TC=0,0 
L_V7  nR_4  nV_7  0.014646uH 
R_V8  nV_7  nV_8  7.852787m  TC=0,0 
L_V8  nV_7  nV_8  0.073723uH 
L_L4  nV_8  NTMP0000000004  6.519695uH 
K_K457  L_L4  L_L5  0.1050 
K_K458  L_L4  L_L6  0.0397 
K_K459  L_L4  L_L7  0.0258 
K_K460  L_L4  L_L8  0.0192 
K_K461  L_L4  L_L9  0.0153 
K_K462  L_L4  L_L10  0.0127 
K_K463  L_L4  L_L11  0.0109 
K_K464  L_L4  L_L12  0.0095 
K_K465  L_L4  L_L13  0.0084 
K_K466  L_L4  L_L14  0.0076 
K_K467  L_L4  L_L15  0.0069 
K_K468  L_L4  L_L16  0.0063 
K_K469  L_L4  L_L17  0.0058 
K_K470  L_L4  L_L18  0.0054 
K_K471  L_L4  L_L19  0.0051 
K_K472  L_L4  L_L20  0.0047 
K_K473  L_L4  L_L21  0.0045 
K_K474  L_L4  L_L22  0.0042 
K_K475  L_L4  L_L23  0.0040 
K_K476  L_L4  L_L24  0.0038 
K_K477  L_L4  L_L25  0.0036 
K_K478  L_L4  L_L26  0.0034 
K_K479  L_L4  L_L27  0.0033 
K_K480  L_L4  L_L28  0.0032 
K_K481  L_L4  L_L29  0.0030 
K_K482  L_L4  L_L30  0.0029 
K_K483  L_L4  L_L31  0.0028 
K_K484  L_L4  L_L32  0.0027 
K_K485  L_L4  L_L33  0.0026 
K_K486  L_L4  L_L34  0.0025 
K_K487  L_L4  L_L35  0.0024 
K_K488  L_L4  L_L36  0.0024 
K_K489  L_L4  L_L37  0.0023 
K_K490  L_L4  L_L38  0.0022 
K_K491  L_L4  L_L39  0.0022 
K_K492  L_L4  L_L40  0.0021 
K_K493  L_L4  L_L41  0.0020 
K_K494  L_L4  L_L42  0.0020 
K_K495  L_L4  L_L43  0.0019 
K_K496  L_L4  L_L44  0.0019 
K_K497  L_L4  L_L45  0.0019 
K_K498  L_L4  L_L46  0.0018 
K_K499  L_L4  L_L47  0.0018 
K_K500  L_L4  L_L48  0.0017 
K_K501  L_L4  L_L49  0.0017 
K_K502  L_L4  L_L50  0.0017 
K_K503  L_L4  L_L51  0.0016 
K_K504  L_L4  L_L52  0.0016 
K_K505  L_L4  L_L53  0.0015 
K_K506  L_L4  L_L54  0.0015 
K_K507  L_L4  L_L55  0.0015 
K_K508  L_L4  L_L56  0.0015 
K_K509  L_L4  L_L57  0.0014 
K_K510  L_L4  L_L58  0.0014 
K_K511  L_L4  L_L59  0.0014 
K_K512  L_L4  L_L60  0.0014 
K_K513  L_L4  L_L61  0.0013 
K_K514  L_L4  L_L62  0.0013 
K_K515  L_L4  L_L63  0.0013 
K_K516  L_L4  L_L64  0.0013 
K_K517  L_L4  L_L65  0.0013 
K_K518  L_L4  L_L66  0.0012 
K_K519  L_L4  L_L67  0.0012 
K_K520  L_L4  L_L68  0.0012 
K_K521  L_L4  L_L69  0.0012 
K_K522  L_L4  L_L70  0.0011 
K_K523  L_L4  L_L71  0.0011 
K_K524  L_L4  L_L72  0.0011 
K_K525  L_L4  L_L73  0.0011 
K_K526  L_L4  L_L74  0.0011 
K_K527  L_L4  L_L75  0.0011 
K_K528  L_L4  L_L76  0.0011 
K_K529  L_L4  L_L77  0.0010 
K_K530  L_L4  L_L78  0.0010 
K_K531  L_L4  L_L79  0.0010 
K_K532  L_L4  L_L139  0.0256 
K_K533  L_L4  L_L140  0.0389 
K_K534  L_L4  L_L141  0.0812 
K_K535  L_L4  L_L142  0.1569 
K_K536  L_L4  L_L143  0.0812 
K_K537  L_L4  L_L144  0.0389 
K_K538  L_L4  L_L145  0.0256 
K_K539  L_L4  L_L146  0.0191 
K_K540  L_L4  L_L147  0.0152 
K_K541  L_L4  L_L148  0.0127 
K_K542  L_L4  L_L149  0.0109 
K_K543  L_L4  L_L150  0.0095 
K_K544  L_L4  L_L151  0.0084 
K_K545  L_L4  L_L152  0.0076 
K_K546  L_L4  L_L153  0.0069 
K_K547  L_L4  L_L154  0.0063 
K_K548  L_L4  L_L155  0.0058 
K_K549  L_L4  L_L156  0.0054 
K_K550  L_L4  L_L157  0.0051 
K_K551  L_L4  L_L158  0.0047 
K_K552  L_L4  L_L159  0.0045 
K_K553  L_L4  L_L160  0.0042 
K_K554  L_L4  L_L161  0.0040 
K_K555  L_L4  L_L162  0.0038 
K_K556  L_L4  L_L163  0.0036 
K_K557  L_L4  L_L164  0.0034 
K_K558  L_L4  L_L165  0.0033 
K_K559  L_L4  L_L166  0.0032 
K_K560  L_L4  L_L167  0.0030 
K_K561  L_L4  L_L168  0.0029 
K_K562  L_L4  L_L169  0.0028 
K_K563  L_L4  L_L170  0.0027 
K_K564  L_L4  L_L171  0.0026 
K_K565  L_L4  L_L172  0.0025 
K_K566  L_L4  L_L173  0.0024 
K_K567  L_L4  L_L174  0.0024 
K_K568  L_L4  L_L175  0.0023 
K_K569  L_L4  L_L176  0.0022 
K_K570  L_L4  L_L177  0.0022 
K_K571  L_L4  L_L178  0.0021 
K_K572  L_L4  L_L179  0.0020 
K_K573  L_L4  L_L180  0.0020 
K_K574  L_L4  L_L181  0.0019 
K_K575  L_L4  L_L182  0.0019 
K_K576  L_L4  L_L183  0.0018 
K_K577  L_L4  L_L184  0.0018 
K_K578  L_L4  L_L185  0.0018 
K_K579  L_L4  L_L186  0.0017 
K_K580  L_L4  L_L187  0.0017 
K_K581  L_L4  L_L188  0.0016 
K_K582  L_L4  L_L189  0.0016 
K_K583  L_L4  L_L190  0.0016 
K_K584  L_L4  L_L191  0.0015 
K_K585  L_L4  L_L192  0.0015 
K_K586  L_L4  L_L193  0.0015 
K_K587  L_L4  L_L194  0.0015 
K_K588  L_L4  L_L195  0.0014 
K_K589  L_L4  L_L196  0.0014 
K_K590  L_L4  L_L197  0.0014 
K_K591  L_L4  L_L198  0.0014 
K_K592  L_L4  L_L199  0.0013 
K_K593  L_L4  L_L200  0.0013 
K_K594  L_L4  L_L201  0.0013 
K_K595  L_L4  L_L202  0.0013 
K_K596  L_L4  L_L203  0.0012 
K_K597  L_L4  L_L204  0.0012 
K_K598  L_L4  L_L205  0.0012 
K_K599  L_L4  L_L206  0.0012 
K_K600  L_L4  L_L207  0.0012 
K_K601  L_L4  L_L208  0.0011 
K_K602  L_L4  L_L209  0.0011 
K_K603  L_L4  L_L210  0.0011 
K_K604  L_L4  L_L211  0.0011 
K_K605  L_L4  L_L212  0.0011 
K_K606  L_L4  L_L213  0.0011 
K_K607  L_L4  L_L214  0.0011 
K_K608  L_L4  L_L215  0.0010 
K_K609  L_L4  L_L216  0.0010 
K_K610  L_L4  L_L217  0.0010 
* *  Branch  NTMP0000000004 - NTMP0000000005 
R_R5  NTMP0000000004  nU_5  32.914993m  TC=0,0 
V_Ui5  nU_5  nR_5  STIMULUS=U_IND_0000000005 
R_V9  nR_5  nV_9  23.280268m  TC=0,0 
L_V9  nR_5  nV_9  0.014646uH 
R_V10  nV_9  nV_10  7.852787m  TC=0,0 
L_V10  nV_9  nV_10  0.073723uH 
L_L5  nV_10  NTMP0000000005  6.519695uH 
K_K611  L_L5  L_L6  0.1050 
K_K612  L_L5  L_L7  0.0397 
K_K613  L_L5  L_L8  0.0258 
K_K614  L_L5  L_L9  0.0192 
K_K615  L_L5  L_L10  0.0153 
K_K616  L_L5  L_L11  0.0127 
K_K617  L_L5  L_L12  0.0109 
K_K618  L_L5  L_L13  0.0095 
K_K619  L_L5  L_L14  0.0084 
K_K620  L_L5  L_L15  0.0076 
K_K621  L_L5  L_L16  0.0069 
K_K622  L_L5  L_L17  0.0063 
K_K623  L_L5  L_L18  0.0058 
K_K624  L_L5  L_L19  0.0054 
K_K625  L_L5  L_L20  0.0051 
K_K626  L_L5  L_L21  0.0047 
K_K627  L_L5  L_L22  0.0045 
K_K628  L_L5  L_L23  0.0042 
K_K629  L_L5  L_L24  0.0040 
K_K630  L_L5  L_L25  0.0038 
K_K631  L_L5  L_L26  0.0036 
K_K632  L_L5  L_L27  0.0034 
K_K633  L_L5  L_L28  0.0033 
K_K634  L_L5  L_L29  0.0032 
K_K635  L_L5  L_L30  0.0030 
K_K636  L_L5  L_L31  0.0029 
K_K637  L_L5  L_L32  0.0028 
K_K638  L_L5  L_L33  0.0027 
K_K639  L_L5  L_L34  0.0026 
K_K640  L_L5  L_L35  0.0025 
K_K641  L_L5  L_L36  0.0024 
K_K642  L_L5  L_L37  0.0024 
K_K643  L_L5  L_L38  0.0023 
K_K644  L_L5  L_L39  0.0022 
K_K645  L_L5  L_L40  0.0022 
K_K646  L_L5  L_L41  0.0021 
K_K647  L_L5  L_L42  0.0020 
K_K648  L_L5  L_L43  0.0020 
K_K649  L_L5  L_L44  0.0019 
K_K650  L_L5  L_L45  0.0019 
K_K651  L_L5  L_L46  0.0018 
K_K652  L_L5  L_L47  0.0018 
K_K653  L_L5  L_L48  0.0018 
K_K654  L_L5  L_L49  0.0017 
K_K655  L_L5  L_L50  0.0017 
K_K656  L_L5  L_L51  0.0016 
K_K657  L_L5  L_L52  0.0016 
K_K658  L_L5  L_L53  0.0016 
K_K659  L_L5  L_L54  0.0015 
K_K660  L_L5  L_L55  0.0015 
K_K661  L_L5  L_L56  0.0015 
K_K662  L_L5  L_L57  0.0015 
K_K663  L_L5  L_L58  0.0014 
K_K664  L_L5  L_L59  0.0014 
K_K665  L_L5  L_L60  0.0014 
K_K666  L_L5  L_L61  0.0014 
K_K667  L_L5  L_L62  0.0013 
K_K668  L_L5  L_L63  0.0013 
K_K669  L_L5  L_L64  0.0013 
K_K670  L_L5  L_L65  0.0013 
K_K671  L_L5  L_L66  0.0013 
K_K672  L_L5  L_L67  0.0012 
K_K673  L_L5  L_L68  0.0012 
K_K674  L_L5  L_L69  0.0012 
K_K675  L_L5  L_L70  0.0012 
K_K676  L_L5  L_L71  0.0011 
K_K677  L_L5  L_L72  0.0011 
K_K678  L_L5  L_L73  0.0011 
K_K679  L_L5  L_L74  0.0011 
K_K680  L_L5  L_L75  0.0011 
K_K681  L_L5  L_L76  0.0011 
K_K682  L_L5  L_L77  0.0011 
K_K683  L_L5  L_L78  0.0010 
K_K684  L_L5  L_L79  0.0010 
K_K685  L_L5  L_L80  0.0010 
K_K686  L_L5  L_L139  0.0191 
K_K687  L_L5  L_L140  0.0256 
K_K688  L_L5  L_L141  0.0389 
K_K689  L_L5  L_L142  0.0812 
K_K690  L_L5  L_L143  0.1569 
K_K691  L_L5  L_L144  0.0812 
K_K692  L_L5  L_L145  0.0389 
K_K693  L_L5  L_L146  0.0256 
K_K694  L_L5  L_L147  0.0191 
K_K695  L_L5  L_L148  0.0152 
K_K696  L_L5  L_L149  0.0127 
K_K697  L_L5  L_L150  0.0109 
K_K698  L_L5  L_L151  0.0095 
K_K699  L_L5  L_L152  0.0084 
K_K700  L_L5  L_L153  0.0076 
K_K701  L_L5  L_L154  0.0069 
K_K702  L_L5  L_L155  0.0063 
K_K703  L_L5  L_L156  0.0058 
K_K704  L_L5  L_L157  0.0054 
K_K705  L_L5  L_L158  0.0051 
K_K706  L_L5  L_L159  0.0047 
K_K707  L_L5  L_L160  0.0045 
K_K708  L_L5  L_L161  0.0042 
K_K709  L_L5  L_L162  0.0040 
K_K710  L_L5  L_L163  0.0038 
K_K711  L_L5  L_L164  0.0036 
K_K712  L_L5  L_L165  0.0034 
K_K713  L_L5  L_L166  0.0033 
K_K714  L_L5  L_L167  0.0032 
K_K715  L_L5  L_L168  0.0030 
K_K716  L_L5  L_L169  0.0029 
K_K717  L_L5  L_L170  0.0028 
K_K718  L_L5  L_L171  0.0027 
K_K719  L_L5  L_L172  0.0026 
K_K720  L_L5  L_L173  0.0025 
K_K721  L_L5  L_L174  0.0024 
K_K722  L_L5  L_L175  0.0024 
K_K723  L_L5  L_L176  0.0023 
K_K724  L_L5  L_L177  0.0022 
K_K725  L_L5  L_L178  0.0022 
K_K726  L_L5  L_L179  0.0021 
K_K727  L_L5  L_L180  0.0020 
K_K728  L_L5  L_L181  0.0020 
K_K729  L_L5  L_L182  0.0019 
K_K730  L_L5  L_L183  0.0019 
K_K731  L_L5  L_L184  0.0018 
K_K732  L_L5  L_L185  0.0018 
K_K733  L_L5  L_L186  0.0018 
K_K734  L_L5  L_L187  0.0017 
K_K735  L_L5  L_L188  0.0017 
K_K736  L_L5  L_L189  0.0016 
K_K737  L_L5  L_L190  0.0016 
K_K738  L_L5  L_L191  0.0016 
K_K739  L_L5  L_L192  0.0015 
K_K740  L_L5  L_L193  0.0015 
K_K741  L_L5  L_L194  0.0015 
K_K742  L_L5  L_L195  0.0015 
K_K743  L_L5  L_L196  0.0014 
K_K744  L_L5  L_L197  0.0014 
K_K745  L_L5  L_L198  0.0014 
K_K746  L_L5  L_L199  0.0014 
K_K747  L_L5  L_L200  0.0013 
K_K748  L_L5  L_L201  0.0013 
K_K749  L_L5  L_L202  0.0013 
K_K750  L_L5  L_L203  0.0013 
K_K751  L_L5  L_L204  0.0012 
K_K752  L_L5  L_L205  0.0012 
K_K753  L_L5  L_L206  0.0012 
K_K754  L_L5  L_L207  0.0012 
K_K755  L_L5  L_L208  0.0012 
K_K756  L_L5  L_L209  0.0011 
K_K757  L_L5  L_L210  0.0011 
K_K758  L_L5  L_L211  0.0011 
K_K759  L_L5  L_L212  0.0011 
K_K760  L_L5  L_L213  0.0011 
K_K761  L_L5  L_L214  0.0011 
K_K762  L_L5  L_L215  0.0011 
K_K763  L_L5  L_L216  0.0010 
K_K764  L_L5  L_L217  0.0010 
K_K765  L_L5  L_L218  0.0010 
* *  Branch  NTMP0000000005 - NTMP0000000006 
R_R6  NTMP0000000005  nU_6  32.914993m  TC=0,0 
V_Ui6  nU_6  nR_6  STIMULUS=U_IND_0000000006 
R_V11  nR_6  nV_11  23.280268m  TC=0,0 
L_V11  nR_6  nV_11  0.014646uH 
R_V12  nV_11  nV_12  7.852787m  TC=0,0 
L_V12  nV_11  nV_12  0.073723uH 
L_L6  nV_12  NTMP0000000006  6.519695uH 
K_K766  L_L6  L_L7  0.1050 
K_K767  L_L6  L_L8  0.0397 
K_K768  L_L6  L_L9  0.0258 
K_K769  L_L6  L_L10  0.0192 
K_K770  L_L6  L_L11  0.0153 
K_K771  L_L6  L_L12  0.0127 
K_K772  L_L6  L_L13  0.0109 
K_K773  L_L6  L_L14  0.0095 
K_K774  L_L6  L_L15  0.0084 
K_K775  L_L6  L_L16  0.0076 
K_K776  L_L6  L_L17  0.0069 
K_K777  L_L6  L_L18  0.0063 
K_K778  L_L6  L_L19  0.0058 
K_K779  L_L6  L_L20  0.0054 
K_K780  L_L6  L_L21  0.0051 
K_K781  L_L6  L_L22  0.0047 
K_K782  L_L6  L_L23  0.0045 
K_K783  L_L6  L_L24  0.0042 
K_K784  L_L6  L_L25  0.0040 
K_K785  L_L6  L_L26  0.0038 
K_K786  L_L6  L_L27  0.0036 
K_K787  L_L6  L_L28  0.0034 
K_K788  L_L6  L_L29  0.0033 
K_K789  L_L6  L_L30  0.0032 
K_K790  L_L6  L_L31  0.0030 
K_K791  L_L6  L_L32  0.0029 
K_K792  L_L6  L_L33  0.0028 
K_K793  L_L6  L_L34  0.0027 
K_K794  L_L6  L_L35  0.0026 
K_K795  L_L6  L_L36  0.0025 
K_K796  L_L6  L_L37  0.0024 
K_K797  L_L6  L_L38  0.0024 
K_K798  L_L6  L_L39  0.0023 
K_K799  L_L6  L_L40  0.0022 
K_K800  L_L6  L_L41  0.0022 
K_K801  L_L6  L_L42  0.0021 
K_K802  L_L6  L_L43  0.0020 
K_K803  L_L6  L_L44  0.0020 
K_K804  L_L6  L_L45  0.0019 
K_K805  L_L6  L_L46  0.0019 
K_K806  L_L6  L_L47  0.0018 
K_K807  L_L6  L_L48  0.0018 
K_K808  L_L6  L_L49  0.0018 
K_K809  L_L6  L_L50  0.0017 
K_K810  L_L6  L_L51  0.0017 
K_K811  L_L6  L_L52  0.0016 
K_K812  L_L6  L_L53  0.0016 
K_K813  L_L6  L_L54  0.0016 
K_K814  L_L6  L_L55  0.0016 
K_K815  L_L6  L_L56  0.0015 
K_K816  L_L6  L_L57  0.0015 
K_K817  L_L6  L_L58  0.0015 
K_K818  L_L6  L_L59  0.0014 
K_K819  L_L6  L_L60  0.0014 
K_K820  L_L6  L_L61  0.0014 
K_K821  L_L6  L_L62  0.0014 
K_K822  L_L6  L_L63  0.0013 
K_K823  L_L6  L_L64  0.0013 
K_K824  L_L6  L_L65  0.0013 
K_K825  L_L6  L_L66  0.0013 
K_K826  L_L6  L_L67  0.0013 
K_K827  L_L6  L_L68  0.0012 
K_K828  L_L6  L_L69  0.0012 
K_K829  L_L6  L_L70  0.0012 
K_K830  L_L6  L_L71  0.0012 
K_K831  L_L6  L_L72  0.0011 
K_K832  L_L6  L_L73  0.0011 
K_K833  L_L6  L_L74  0.0011 
K_K834  L_L6  L_L75  0.0011 
K_K835  L_L6  L_L76  0.0011 
K_K836  L_L6  L_L77  0.0011 
K_K837  L_L6  L_L78  0.0011 
K_K838  L_L6  L_L79  0.0010 
K_K839  L_L6  L_L80  0.0010 
K_K840  L_L6  L_L81  0.0010 
K_K841  L_L6  L_L139  0.0152 
K_K842  L_L6  L_L140  0.0191 
K_K843  L_L6  L_L141  0.0256 
K_K844  L_L6  L_L142  0.0389 
K_K845  L_L6  L_L143  0.0812 
K_K846  L_L6  L_L144  0.1569 
K_K847  L_L6  L_L145  0.0812 
K_K848  L_L6  L_L146  0.0389 
K_K849  L_L6  L_L147  0.0256 
K_K850  L_L6  L_L148  0.0191 
K_K851  L_L6  L_L149  0.0152 
K_K852  L_L6  L_L150  0.0127 
K_K853  L_L6  L_L151  0.0109 
K_K854  L_L6  L_L152  0.0095 
K_K855  L_L6  L_L153  0.0084 
K_K856  L_L6  L_L154  0.0076 
K_K857  L_L6  L_L155  0.0069 
K_K858  L_L6  L_L156  0.0063 
K_K859  L_L6  L_L157  0.0058 
K_K860  L_L6  L_L158  0.0054 
K_K861  L_L6  L_L159  0.0051 
K_K862  L_L6  L_L160  0.0047 
K_K863  L_L6  L_L161  0.0045 
K_K864  L_L6  L_L162  0.0042 
K_K865  L_L6  L_L163  0.0040 
K_K866  L_L6  L_L164  0.0038 
K_K867  L_L6  L_L165  0.0036 
K_K868  L_L6  L_L166  0.0034 
K_K869  L_L6  L_L167  0.0033 
K_K870  L_L6  L_L168  0.0032 
K_K871  L_L6  L_L169  0.0030 
K_K872  L_L6  L_L170  0.0029 
K_K873  L_L6  L_L171  0.0028 
K_K874  L_L6  L_L172  0.0027 
K_K875  L_L6  L_L173  0.0026 
K_K876  L_L6  L_L174  0.0025 
K_K877  L_L6  L_L175  0.0024 
K_K878  L_L6  L_L176  0.0024 
K_K879  L_L6  L_L177  0.0023 
K_K880  L_L6  L_L178  0.0022 
K_K881  L_L6  L_L179  0.0022 
K_K882  L_L6  L_L180  0.0021 
K_K883  L_L6  L_L181  0.0020 
K_K884  L_L6  L_L182  0.0020 
K_K885  L_L6  L_L183  0.0019 
K_K886  L_L6  L_L184  0.0019 
K_K887  L_L6  L_L185  0.0018 
K_K888  L_L6  L_L186  0.0018 
K_K889  L_L6  L_L187  0.0018 
K_K890  L_L6  L_L188  0.0017 
K_K891  L_L6  L_L189  0.0017 
K_K892  L_L6  L_L190  0.0016 
K_K893  L_L6  L_L191  0.0016 
K_K894  L_L6  L_L192  0.0016 
K_K895  L_L6  L_L193  0.0015 
K_K896  L_L6  L_L194  0.0015 
K_K897  L_L6  L_L195  0.0015 
K_K898  L_L6  L_L196  0.0015 
K_K899  L_L6  L_L197  0.0014 
K_K900  L_L6  L_L198  0.0014 
K_K901  L_L6  L_L199  0.0014 
K_K902  L_L6  L_L200  0.0014 
K_K903  L_L6  L_L201  0.0013 
K_K904  L_L6  L_L202  0.0013 
K_K905  L_L6  L_L203  0.0013 
K_K906  L_L6  L_L204  0.0013 
K_K907  L_L6  L_L205  0.0012 
K_K908  L_L6  L_L206  0.0012 
K_K909  L_L6  L_L207  0.0012 
K_K910  L_L6  L_L208  0.0012 
K_K911  L_L6  L_L209  0.0012 
K_K912  L_L6  L_L210  0.0011 
K_K913  L_L6  L_L211  0.0011 
K_K914  L_L6  L_L212  0.0011 
K_K915  L_L6  L_L213  0.0011 
K_K916  L_L6  L_L214  0.0011 
K_K917  L_L6  L_L215  0.0011 
K_K918  L_L6  L_L216  0.0011 
K_K919  L_L6  L_L217  0.0010 
K_K920  L_L6  L_L218  0.0010 
K_K921  L_L6  L_L219  0.0010 
* *  Branch  NTMP0000000006 - NTMP0000000007 
R_R7  NTMP0000000006  nU_7  32.914993m  TC=0,0 
V_Ui7  nU_7  nR_7  STIMULUS=U_IND_0000000007 
R_V13  nR_7  nV_13  23.280268m  TC=0,0 
L_V13  nR_7  nV_13  0.014646uH 
R_V14  nV_13  nV_14  7.852787m  TC=0,0 
L_V14  nV_13  nV_14  0.073723uH 
L_L7  nV_14  NTMP0000000007  6.519695uH 
K_K922  L_L7  L_L8  0.1050 
K_K923  L_L7  L_L9  0.0397 
K_K924  L_L7  L_L10  0.0258 
K_K925  L_L7  L_L11  0.0192 
K_K926  L_L7  L_L12  0.0153 
K_K927  L_L7  L_L13  0.0127 
K_K928  L_L7  L_L14  0.0109 
K_K929  L_L7  L_L15  0.0095 
K_K930  L_L7  L_L16  0.0084 
K_K931  L_L7  L_L17  0.0076 
K_K932  L_L7  L_L18  0.0069 
K_K933  L_L7  L_L19  0.0063 
K_K934  L_L7  L_L20  0.0058 