.SUBCKT TubeTower40m_grid N_T0m N_BUS_GND N_BUS_2
************************************** 
*   Model Generated by Chen Hongcai  * 
*   Hong Kong Polytechic University  * 
*         All Rights Reserved        * 
*       Email:  hc.chen@live.com     * 
************************************** 
* Model generated on 21-Jun-2018 
* MODEL FORMAT: PSpice 
*  Node  N_T0m  to other nodes
* *  Node  N_T0m  to  Node  N_C0_93  
R_R1  N_T0m  N_C0_93  3.311369e+05m  TC=0,0 
R_V1  N_T0m  nV_1  5.753454e+01m  TC=0,0 
L_V1  nV_1  N_C0_93  4.321286e+00uH 
R_V2  N_T0m  nV_2  9.194456e-01m  TC=0,0 
L_V2  nV_2  N_C0_93  1.489966e+00uH 
R_V3  N_T0m  nV_3  2.733240e+01m  TC=0,0 
L_V3  nV_3  N_C0_93  1.535618e+02uH 
* *  Node  N_T0m  to  Node  N_C0_94  
R_R2  N_T0m  N_C0_94  1.929561e+07m  TC=0,0 
R_V4  N_T0m  nV_4  -1.968526e+04m  TC=0,0 
L_V4  nV_4  N_C0_94  -1.478515e+03uH 
R_V5  N_T0m  nV_5  2.689583e+04m  TC=0,0 
L_V5  nV_5  N_C0_94  4.358481e+04uH 
R_V6  N_T0m  nV_6  -8.558092e+04m  TC=0,0 
L_V6  nV_6  N_C0_94  -4.808199e+05uH 
* *  Node  N_T0m  to  Node  N_C0_95  
R_R3  N_T0m  N_C0_95  7.290655e+07m  TC=0,0 
R_V7  N_T0m  nV_7  -2.972018e+04m  TC=0,0 
L_V7  nV_7  N_C0_95  -2.232214e+03uH 
R_V8  N_T0m  nV_8  6.089555e+04m  TC=0,0 
L_V8  nV_8  N_C0_95  9.868150e+04uH 
R_V9  N_T0m  nV_9  -1.322723e+05m  TC=0,0 
L_V9  nV_9  N_C0_95  -7.431464e+05uH 
* *  Node  N_T0m  to  Node  N_C0_96  
R_R4  N_T0m  N_C0_96  1.929561e+07m  TC=0,0 
R_V10  N_T0m  nV_10  -1.968526e+04m  TC=0,0 
L_V10  nV_10  N_C0_96  -1.478515e+03uH 
R_V11  N_T0m  nV_11  2.689583e+04m  TC=0,0 
L_V11  nV_11  N_C0_96  4.358481e+04uH 
R_V12  N_T0m  nV_12  -8.558092e+04m  TC=0,0 
L_V12  nV_12  N_C0_96  -4.808199e+05uH 
* *  Node  N_T0m  to  Node  N_C0_97  
R_R5  N_T0m  N_C0_97  1.589169e+07m  TC=0,0 
R_V13  N_T0m  nV_13  -1.566857e+04m  TC=0,0 
L_V13  nV_13  N_C0_97  -1.176830e+03uH 
R_V14  N_T0m  nV_14  1.847131e+04m  TC=0,0 
L_V14  nV_14  N_C0_97  2.993283e+04uH 
R_V15  N_T0m  nV_15  -9.309683e+04m  TC=0,0 
L_V15  nV_15  N_C0_97  -5.230466e+05uH 
* *  Node  N_T0m  to  Node  N_C0_98  
R_R6  N_T0m  N_C0_98  5.673567e+06m  TC=0,0 
R_V16  N_T0m  nV_16  7.920833e+03m  TC=0,0 
L_V16  nV_16  N_C0_98  5.949155e+02uH 
R_V17  N_T0m  nV_17  6.862050e+01m  TC=0,0 
L_V17  nV_17  N_C0_98  1.111998e+02uH 
R_V18  N_T0m  nV_18  -7.094932e+01m  TC=0,0 
L_V18  nV_18  N_C0_98  -3.986151e+02uH 
* *  Node  N_T0m  to  Node  N_C0_99  
R_R7  N_T0m  N_C0_99  2.734986e+07m  TC=0,0 
R_V19  N_T0m  nV_19  8.946755e+03m  TC=0,0 
L_V19  nV_19  N_C0_99  6.719701e+02uH 
R_V20  N_T0m  nV_20  6.792547e+01m  TC=0,0 
L_V20  nV_20  N_C0_99  1.100735e+02uH 
R_V21  N_T0m  nV_21  -7.022211e+01m  TC=0,0 
L_V21  nV_21  N_C0_99  -3.945294e+02uH 
* *  Node  N_T0m  to  Node  N_C0_100  
R_R8  N_T0m  N_C0_100  2.734986e+07m  TC=0,0 
R_V22  N_T0m  nV_22  8.946755e+03m  TC=0,0 
L_V22  nV_22  N_C0_100  6.719701e+02uH 
R_V23  N_T0m  nV_23  6.792547e+01m  TC=0,0 
L_V23  nV_23  N_C0_100  1.100735e+02uH 
R_V24  N_T0m  nV_24  -7.022211e+01m  TC=0,0 
L_V24  nV_24  N_C0_100  -3.945294e+02uH 
* *  Node  N_T0m  to  Node  N_C0_101  
R_R9  N_T0m  N_C0_101  5.673567e+06m  TC=0,0 
R_V25  N_T0m  nV_25  7.920833e+03m  TC=0,0 
L_V25  nV_25  N_C0_101  5.949155e+02uH 
R_V26  N_T0m  nV_26  6.862050e+01m  TC=0,0 
L_V26  nV_26  N_C0_101  1.111998e+02uH 
R_V27  N_T0m  nV_27  -7.094932e+01m  TC=0,0 
L_V27  nV_27  N_C0_101  -3.986151e+02uH 
* *  Node  N_T0m  to  Node  N_C0_102  
R_R10  N_T0m  N_C0_102  3.029630e+07m  TC=0,0 
R_V28  N_T0m  nV_28  1.477471e+04m  TC=0,0 
L_V28  nV_28  N_C0_102  1.109695e+03uH 
R_V29  N_T0m  nV_29  1.841328e+02m  TC=0,0 
L_V29  nV_29  N_C0_102  2.983881e+02uH 
R_V30  N_T0m  nV_30  -1.942703e+02m  TC=0,0 
L_V30  nV_30  N_C0_102  -1.091470e+03uH 
* *  Node  N_T0m  to  Node  N_C0_103  
R_R11  N_T0m  N_C0_103  -1.683560e+09m  TC=0,0 
R_V31  N_T0m  nV_31  9.834939e+04m  TC=0,0 
L_V31  nV_31  N_C0_103  7.386795e+03uH 
R_V32  N_T0m  nV_32  -4.777270e+04m  TC=0,0 
L_V32  nV_32  N_C0_103  -7.741587e+04uH 
R_V33  N_T0m  nV_33  -1.058103e+06m  TC=0,0 
L_V33  nV_33  N_C0_103  -5.944746e+06uH 
* *  Node  N_T0m  to  Node  N_C0_104  
R_R12  N_T0m  N_C0_104  3.029630e+07m  TC=0,0 
R_V34  N_T0m  nV_34  1.477471e+04m  TC=0,0 
L_V34  nV_34  N_C0_104  1.109695e+03uH 
R_V35  N_T0m  nV_35  1.841328e+02m  TC=0,0 
L_V35  nV_35  N_C0_104  2.983881e+02uH 
R_V36  N_T0m  nV_36  -1.942703e+02m  TC=0,0 
L_V36  nV_36  N_C0_104  -1.091470e+03uH 
* *  Node  N_T0m  to  Node  NTMP0000000019  
R_R13  N_T0m  NTMP0000000019  -1.226208e+08m  TC=0,0 
R_V37  N_T0m  nV_37  -8.621647e+05m  TC=0,0 
L_V37  nV_37  NTMP0000000019  -6.475520e+04uH 
R_V38  N_T0m  nV_38  -3.896465e+04m  TC=0,0 
L_V38  nV_38  NTMP0000000019  -6.314238e+04uH 
R_V39  N_T0m  nV_39  1.116730e+05m  TC=0,0 
L_V39  nV_39  NTMP0000000019  6.274134e+05uH 
* *  Node  N_T0m  to  Node  N_C0_105  
R_R14  N_T0m  N_C0_105  2.518572e+08m  TC=0,0 
R_V40  N_T0m  nV_40  4.811206e+04m  TC=0,0 
L_V40  nV_40  N_C0_105  3.613586e+03uH 
R_V41  N_T0m  nV_41  3.800793e+02m  TC=0,0 
L_V41  nV_41  N_C0_105  6.159201e+02uH 
R_V42  N_T0m  nV_42  -4.076168e+02m  TC=0,0 
L_V42  nV_42  N_C0_105  -2.290116e+03uH 
* *  Node  N_T0m  to  Node  NTMP0000000021  
R_R15  N_T0m  NTMP0000000021  -1.226208e+08m  TC=0,0 
R_V43  N_T0m  nV_43  -8.621647e+05m  TC=0,0 
L_V43  nV_43  NTMP0000000021  -6.475520e+04uH 
R_V44  N_T0m  nV_44  -3.896465e+04m  TC=0,0 
L_V44  nV_44  NTMP0000000021  -6.314238e+04uH 
R_V45  N_T0m  nV_45  1.116730e+05m  TC=0,0 
L_V45  nV_45  NTMP0000000021  6.274134e+05uH 
* *  Node  N_T0m  to  Node  N_C0_106  
R_R16  N_T0m  N_C0_106  2.518572e+08m  TC=0,0 
R_V46  N_T0m  nV_46  4.811206e+04m  TC=0,0 
L_V46  nV_46  N_C0_106  3.613586e+03uH 
R_V47  N_T0m  nV_47  3.800793e+02m  TC=0,0 
L_V47  nV_47  N_C0_106  6.159201e+02uH 
R_V48  N_T0m  nV_48  -4.076168e+02m  TC=0,0 
L_V48  nV_48  N_C0_106  -2.290116e+03uH 
* *  Node  N_T0m  to  Node  N_C0_107  
R_R17  N_T0m  N_C0_107  1.036552e+08m  TC=0,0 
R_V49  N_T0m  nV_49  -6.359700e+04m  TC=0,0 
L_V49  nV_49  N_C0_107  -4.776624e+03uH 
R_V50  N_T0m  nV_50  1.106496e+05m  TC=0,0 
L_V50  nV_50  N_C0_107  1.793081e+05uH 
R_V51  N_T0m  nV_51  1.147265e+05m  TC=0,0 
L_V51  nV_51  N_C0_107  6.445688e+05uH 
* *  Node  N_T0m  to  Node  N_C0_108  
R_R18  N_T0m  N_C0_108  -9.972640e+07m  TC=0,0 
R_V52  N_T0m  nV_52  -5.434840e+03m  TC=0,0 
L_V52  nV_52  N_C0_108  -4.081983e+02uH 
R_V53  N_T0m  nV_53  -2.216385e+02m  TC=0,0 
L_V53  nV_53  N_C0_108  -3.591662e+02uH 
R_V54  N_T0m  nV_54  2.002544e+02m  TC=0,0 
L_V54  nV_54  N_C0_108  1.125091e+03uH 
* *  Node  N_T0m  to  Node  N_C0_109  
R_R19  N_T0m  N_C0_109  -6.658392e+08m  TC=0,0 
R_V55  N_T0m  nV_55  5.451794e+04m  TC=0,0 
L_V55  nV_55  N_C0_109  4.094716e+03uH 
R_V56  N_T0m  nV_56  -7.229801e+04m  TC=0,0 
L_V56  nV_56  N_C0_109  -1.171592e+05uH 
R_V57  N_T0m  nV_57  6.047897e+05m  TC=0,0 
L_V57  nV_57  N_C0_109  3.397895e+06uH 
* *  Node  N_T0m  to  Node  N_C0_110  
R_R20  N_T0m  N_C0_110  -6.658392e+08m  TC=0,0 
R_V58  N_T0m  nV_58  5.451794e+04m  TC=0,0 
L_V58  nV_58  N_C0_110  4.094716e+03uH 
R_V59  N_T0m  nV_59  -7.229801e+04m  TC=0,0 
L_V59  nV_59  N_C0_110  -1.171592e+05uH 
R_V60  N_T0m  nV_60  6.047897e+05m  TC=0,0 
L_V60  nV_60  N_C0_110  3.397895e+06uH 
* *  Node  N_T0m  to  Node  NTMP0000000028  
R_R21  N_T0m  NTMP0000000028  -1.313548e+08m  TC=0,0 
R_V61  N_T0m  nV_61  1.084220e+05m  TC=0,0 
L_V61  nV_61  NTMP0000000028  8.143327e+03uH 
R_V62  N_T0m  nV_62  -3.139751e+05m  TC=0,0 
L_V62  nV_62  NTMP0000000028  -5.087979e+05uH 
R_V63  N_T0m  nV_63  -1.024711e+05m  TC=0,0 
L_V63  nV_63  NTMP0000000028  -5.757139e+05uH 
* *  Node  N_T0m  to  Node  N_C0_111  
R_R22  N_T0m  N_C0_111  3.746663e+08m  TC=0,0 
R_V64  N_T0m  nV_64  -1.962872e+05m  TC=0,0 
L_V64  nV_64  N_C0_111  -1.474268e+04uH 
R_V65  N_T0m  nV_65  7.839578e+04m  TC=0,0 
L_V65  nV_65  N_C0_111  1.270407e+05uH 
R_V66  N_T0m  nV_66  -7.957724e+04m  TC=0,0 
L_V66  nV_66  N_C0_111  -4.470894e+05uH 
* *  Node  N_T0m  to  Node  NTMP0000000030  
R_R23  N_T0m  NTMP0000000030  -1.313548e+08m  TC=0,0 
R_V67  N_T0m  nV_67  1.084220e+05m  TC=0,0 
L_V67  nV_67  NTMP0000000030  8.143327e+03uH 
R_V68  N_T0m  nV_68  -3.139751e+05m  TC=0,0 
L_V68  nV_68  NTMP0000000030  -5.087979e+05uH 
R_V69  N_T0m  nV_69  -1.024711e+05m  TC=0,0 
L_V69  nV_69  NTMP0000000030  -5.757139e+05uH 
* *  Node  N_T0m  to  Node  N_C0_112  
R_R24  N_T0m  N_C0_112  3.746663e+08m  TC=0,0 
R_V70  N_T0m  nV_70  -1.962872e+05m  TC=0,0 
L_V70  nV_70  N_C0_112  -1.474268e+04uH 
R_V71  N_T0m  nV_71  7.839578e+04m  TC=0,0 
L_V71  nV_71  N_C0_112  1.270407e+05uH 
R_V72  N_T0m  nV_72  -7.957724e+04m  TC=0,0 
L_V72  nV_72  N_C0_112  -4.470894e+05uH 
* *  Node  N_T0m  to  Node  N_BUS_2  
R_R25  N_T0m  N_BUS_2  1.163803e+08m  TC=0,0 
R_V73  N_T0m  nV_73  -6.834203e+04m  TC=0,0 
L_V73  nV_73  N_BUS_2  -5.133012e+03uH 
R_V74  N_T0m  nV_74  7.721870e+04m  TC=0,0 
L_V74  nV_74  N_BUS_2  1.251332e+05uH 
R_V75  N_T0m  nV_75  -3.139779e+05m  TC=0,0 
L_V75  nV_75  N_BUS_2  -1.764024e+06uH 
* *  Node  N_T0m  to  Node  N_C0_114  
R_R26  N_T0m  N_C0_114  -2.526333e+07m  TC=0,0 
R_V76  N_T0m  nV_76  -1.186997e+04m  TC=0,0 
L_V76  nV_76  N_C0_114  -8.915262e+02uH 
R_V77  N_T0m  nV_77  -6.855951e+01m  TC=0,0 
L_V77  nV_77  N_C0_114  -1.111010e+02uH 
R_V78  N_T0m  nV_78  7.098063e+01m  TC=0,0 
L_V78  nV_78  N_C0_114  3.987910e+02uH 
* *  Node  N_T0m  to  Node  N_C0_115  
R_R27  N_T0m  N_C0_115  -2.814250e+07m  TC=0,0 
R_V79  N_T0m  nV_79  -1.313614e+04m  TC=0,0 
L_V79  nV_79  N_C0_115  -9.866247e+02uH 
R_V80  N_T0m  nV_80  -6.795690e+01m  TC=0,0 
L_V80  nV_80  N_C0_115  -1.101244e+02uH 
R_V81  N_T0m  nV_81  7.022359e+01m  TC=0,0 
L_V81  nV_81  N_C0_115  3.945377e+02uH 
* *  Node  N_T0m  to  Node  N_C0_116  
R_R28  N_T0m  N_C0_116  -2.526333e+07m  TC=0,0 
R_V82  N_T0m  nV_82  -1.186997e+04m  TC=0,0 
L_V82  nV_82  N_C0_116  -8.915262e+02uH 
R_V83  N_T0m  nV_83  -6.855951e+01m  TC=0,0 
L_V83  nV_83  N_C0_116  -1.111010e+02uH 
R_V84  N_T0m  nV_84  7.098063e+01m  TC=0,0 
L_V84  nV_84  N_C0_116  3.987910e+02uH 
* *  Node  N_T0m  to  Node  N_C0_117  
R_R29  N_T0m  N_C0_117  -2.814250e+07m  TC=0,0 
R_V85  N_T0m  nV_85  -1.313614e+04m  TC=0,0 
L_V85  nV_85  N_C0_117  -9.866247e+02uH 
R_V86  N_T0m  nV_86  -6.795690e+01m  TC=0,0 
L_V86  nV_86  N_C0_117  -1.101244e+02uH 
R_V87  N_T0m  nV_87  7.022359e+01m  TC=0,0 
L_V87  nV_87  N_C0_117  3.945377e+02uH 
* *  Node  N_T0m  to  Node  N_C0_118  
R_R30  N_T0m  N_C0_118  -4.650450e+07m  TC=0,0 
R_V88  N_T0m  nV_88  -3.510682e+04m  TC=0,0 
L_V88  nV_88  N_C0_118  -2.636792e+03uH 
R_V89  N_T0m  nV_89  -1.831599e+02m  TC=0,0 
L_V89  nV_89  N_C0_118  -2.968114e+02uH 
R_V90  N_T0m  nV_90  1.942793e+02m  TC=0,0 
L_V90  nV_90  N_C0_118  1.091521e+03uH 
* *  Node  N_T0m  to  Node  N_C0_119  
R_R31  N_T0m  N_C0_119  -4.650450e+07m  TC=0,0 
R_V91  N_T0m  nV_91  -3.510682e+04m  TC=0,0 
L_V91  nV_91  N_C0_119  -2.636792e+03uH 
R_V92  N_T0m  nV_92  -1.831599e+02m  TC=0,0 
L_V92  nV_92  N_C0_119  -2.968114e+02uH 
R_V93  N_T0m  nV_93  1.942793e+02m  TC=0,0 
L_V93  nV_93  N_C0_119  1.091521e+03uH 
* *  Node  N_T0m  to  Node  N_C0_120  
R_R32  N_T0m  N_C0_120  -1.014204e+08m  TC=0,0 
R_V94  N_T0m  nV_94  -1.626842e+05m  TC=0,0 
L_V94  nV_94  N_C0_120  -1.221883e+04uH 
R_V95  N_T0m  nV_95  -3.786601e+02m  TC=0,0 
L_V95  nV_95  N_C0_120  -6.136203e+02uH 
R_V96  N_T0m  nV_96  4.022939e+02m  TC=0,0 
L_V96  nV_96  N_C0_120  2.260211e+03uH 
* *  Node  N_T0m  to  Node  N_C0_121  
R_R33  N_T0m  N_C0_121  -1.014204e+08m  TC=0,0 
R_V97  N_T0m  nV_97  -1.626842e+05m  TC=0,0 
L_V97  nV_97  N_C0_121  -1.221883e+04uH 
R_V98  N_T0m  nV_98  -3.786601e+02m  TC=0,0 
L_V98  nV_98  N_C0_121  -6.136203e+02uH 
R_V99  N_T0m  nV_99  4.022939e+02m  TC=0,0 
L_V99  nV_99  N_C0_121  2.260211e+03uH 
* *  Node  N_T0m  to  Node  N_BUS_GND  
R_R34  N_T0m  N_BUS_GND  4.500434e+07m  TC=0,0 
R_V100  N_T0m  nV_100  4.679259e+03m  TC=0,0 
L_V100  nV_100  N_BUS_GND  3.514483e+02uH 
R_V101  N_T0m  nV_101  2.242694e+02m  TC=0,0 
L_V101  nV_101  N_BUS_GND  3.634296e+02uH 
R_V102  N_T0m  nV_102  -2.020144e+02m  TC=0,0 
L_V102  nV_102  N_BUS_GND  -1.134979e+03uH 
*  Node  N_C0_93  to other nodes
* *  Node  N_C0_93  to  Node  N_C0_94  
R_R35  N_C0_93  N_C0_94  6.946452e+05m  TC=0,0 
R_V103  N_C0_93  nV_103  1.481920e+02m  TC=0,0 
L_V103  nV_103  N_C0_94  1.113036e+01uH 
R_V104  N_C0_93  nV_104  2.117355e+00m  TC=0,0 
L_V104  nV_104  N_C0_94  3.431183e+00uH 
R_V105  N_C0_93  nV_105  1.757113e+01m  TC=0,0 
L_V105  nV_105  N_C0_94  9.872002e+01uH 
* *  Node  N_C0_93  to  Node  N_C0_95  
R_R36  N_C0_93  N_C0_95  6.292757e+05m  TC=0,0 
R_V106  N_C0_93  nV_106  1.416494e+02m  TC=0,0 
L_V106  nV_106  N_C0_95  1.063896e+01uH 
R_V107  N_C0_93  nV_107  2.078042e+00m  TC=0,0 
L_V107  nV_107  N_C0_95  3.367477e+00uH 
R_V108  N_C0_93  nV_108  2.126808e+01m  TC=0,0 
L_V108  nV_108  N_C0_95  1.194906e+02uH 
* *  Node  N_C0_93  to  Node  N_C0_96  
R_R37  N_C0_93  N_C0_96  6.946452e+05m  TC=0,0 
R_V109  N_C0_93  nV_109  1.481920e+02m  TC=0,0 
L_V109  nV_109  N_C0_96  1.113036e+01uH 
R_V110  N_C0_93  nV_110  2.117355e+00m  TC=0,0 
L_V110  nV_110  N_C0_96  3.431183e+00uH 
R_V111  N_C0_93  nV_111  1.757113e+01m  TC=0,0 
L_V111  nV_111  N_C0_96  9.872002e+01uH 
* *  Node  N_C0_93  to  Node  N_C0_97  
R_R38  N_C0_93  N_C0_97  7.012469e+05m  TC=0,0 
R_V112  N_C0_93  nV_112  1.484865e+02m  TC=0,0 
L_V112  nV_112  N_C0_97  1.115248e+01uH 
R_V113  N_C0_93  nV_113  2.118056e+00m  TC=0,0 
L_V113  nV_113  N_C0_97  3.432319e+00uH 
R_V114  N_C0_93  nV_114  1.751318e+01m  TC=0,0 
L_V114  nV_114  N_C0_97  9.839445e+01uH 
* *  Node  N_C0_93  to  Node  N_C0_98  
R_R39  N_C0_93  N_C0_98  -6.271330e+07m  TC=0,0 
R_V115  N_C0_93  nV_115  -2.085622e+03m  TC=0,0 
L_V115  nV_115  N_C0_98  -1.566463e+02uH 
R_V116  N_C0_93  nV_116  -4.647813e+01m  TC=0,0 
L_V116  nV_116  N_C0_98  -7.531802e+01uH 
R_V117  N_C0_93  nV_117  4.565467e+01m  TC=0,0 
L_V117  nV_117  N_C0_98  2.565020e+02uH 
* *  Node  N_C0_93  to  Node  N_C0_99  
R_R40  N_C0_93  N_C0_99  6.290177e+06m  TC=0,0 
R_V118  N_C0_93  nV_118  -1.574206e+03m  TC=0,0 
L_V118  nV_118  N_C0_99  -1.182350e+02uH 
R_V119  N_C0_93  nV_119  -3.976070e+01m  TC=0,0 
L_V119  nV_119  N_C0_99  -6.443239e+01uH 
R_V120  N_C0_93  nV_120  3.849430e+01m  TC=0,0 
L_V120  nV_120  N_C0_99  2.162728e+02uH 
* *  Node  N_C0_93  to  Node  N_C0_100  
R_R41  N_C0_93  N_C0_100  6.290177e+06m  TC=0,0 
R_V121  N_C0_93  nV_121  -1.574206e+03m  TC=0,0 
L_V121  nV_121  N_C0_100  -1.182350e+02uH 
R_V122  N_C0_93  nV_122  -3.976070e+01m  TC=0,0 
L_V122  nV_122  N_C0_100  -6.443239e+01uH 
R_V123  N_C0_93  nV_123  3.849430e+01m  TC=0,0 
L_V123  nV_123  N_C0_100  2.162728e+02uH 
* *  Node  N_C0_93  to  Node  N_C0_101  
R_R42  N_C0_93  N_C0_101  -6.271330e+07m  TC=0,0 
R_V124  N_C0_93  nV_124  -2.085622e+03m  TC=0,0 
L_V124  nV_124  N_C0_101  -1.566463e+02uH 
R_V125  N_C0_93  nV_125  -4.647813e+01m  TC=0,0 
L_V125  nV_125  N_C0_101  -7.531802e+01uH 
R_V126  N_C0_93  nV_126  4.565467e+01m  TC=0,0 
L_V126  nV_126  N_C0_101  2.565020e+02uH 
* *  Node  N_C0_93  to  Node  N_C0_102  
R_R43  N_C0_93  N_C0_102  -2.665973e+07m  TC=0,0 
R_V127  N_C0_93  nV_127  -8.552720e+03m  TC=0,0 
L_V127  nV_127  N_C0_102  -6.423750e+02uH 
R_V128  N_C0_93  nV_128  -1.220675e+02m  TC=0,0 
L_V128  nV_128  N_C0_102  -1.978110e+02uH 
R_V129  N_C0_93  nV_129  1.229703e+02m  TC=0,0 
L_V129  nV_129  N_C0_102  6.908850e+02uH 
* *  Node  N_C0_93  to  Node  N_C0_103  
R_R44  N_C0_93  N_C0_103  7.644680e+07m  TC=0,0 
R_V130  N_C0_93  nV_130  -4.348721e+03m  TC=0,0 
L_V130  nV_130  N_C0_103  -3.266224e+02uH 
R_V131  N_C0_93  nV_131  -1.469412e+02m  TC=0,0 
L_V131  nV_131  N_C0_103  -2.381189e+02uH 
R_V132  N_C0_93  nV_132  1.329465e+02m  TC=0,0 
L_V132  nV_132  N_C0_103  7.469343e+02uH 
* *  Node  N_C0_93  to  Node  N_C0_104  
R_R45  N_C0_93  N_C0_104  -2.665973e+07m  TC=0,0 
R_V133  N_C0_93  nV_133  -8.552720e+03m  TC=0,0 
L_V133  nV_133  N_C0_104  -6.423750e+02uH 
R_V134  N_C0_93  nV_134  -1.220675e+02m  TC=0,0 
L_V134  nV_134  N_C0_104  -1.978110e+02uH 
R_V135  N_C0_93  nV_135  1.229703e+02m  TC=0,0 
L_V135  nV_135  N_C0_104  6.908850e+02uH 
* *  Node  N_C0_93  to  Node  NTMP0000000019  
R_R46  N_C0_93  NTMP0000000019  5.136505e+07m  TC=0,0 
R_V136  N_C0_93  nV_136  4.149575e+05m  TC=0,0 
L_V136  nV_136  NTMP0000000019  3.116650e+04uH 
R_V137  N_C0_93  nV_137  -5.352482e+03m  TC=0,0 
L_V137  nV_137  NTMP0000000019  -8.673721e+03uH 
R_V138  N_C0_93  nV_138  5.639508e+03m  TC=0,0 
L_V138  nV_138  NTMP0000000019  3.168449e+04uH 
* *  Node  N_C0_93  to  Node  N_C0_105  
R_R47  N_C0_93  N_C0_105  2.409530e+08m  TC=0,0 
R_V139  N_C0_93  nV_139  -3.633624e+04m  TC=0,0 
L_V139  nV_139  N_C0_105  -2.729131e+03uH 
R_V140  N_C0_93  nV_140  -3.590982e+02m  TC=0,0 
L_V140  nV_140  N_C0_105  -5.819201e+02uH 
R_V141  N_C0_93  nV_141  3.829750e+02m  TC=0,0 
L_V141  nV_141  N_C0_105  2.151671e+03uH 
* *  Node  N_C0_93  to  Node  NTMP0000000021  
R_R48  N_C0_93  NTMP0000000021  5.136505e+07m  TC=0,0 
R_V142  N_C0_93  nV_142  4.149575e+05m  TC=0,0 
L_V142  nV_142  NTMP0000000021  3.116650e+04uH 
R_V143  N_C0_93  nV_143  -5.352482e+03m  TC=0,0 
L_V143  nV_143  NTMP0000000021  -8.673721e+03uH 
R_V144  N_C0_93  nV_144  5.639508e+03m  TC=0,0 
L_V144  nV_144  NTMP0000000021  3.168449e+04uH 
* *  Node  N_C0_93  to  Node  N_C0_106  
R_R49  N_C0_93  N_C0_106  2.409530e+08m  TC=0,0 
R_V145  N_C0_93  nV_145  -3.633624e+04m  TC=0,0 
L_V145  nV_145  N_C0_106  -2.729131e+03uH 
R_V146  N_C0_93  nV_146  -3.590982e+02m  TC=0,0 
L_V146  nV_146  N_C0_106  -5.819201e+02uH 
R_V147  N_C0_93  nV_147  3.829750e+02m  TC=0,0 
L_V147  nV_147  N_C0_106  2.151671e+03uH 
* *  Node  N_C0_93  to  Node  N_C0_107  
R_R50  N_C0_93  N_C0_107  -1.082352e+08m  TC=0,0 
R_V148  N_C0_93  nV_148  -1.120335e+05m  TC=0,0 
L_V148  nV_148  N_C0_107  -8.414579e+03uH 
R_V149  N_C0_93  nV_149  -1.935926e+04m  TC=0,0 
L_V149  nV_149  N_C0_107  -3.137176e+04uH 
R_V150  N_C0_93  nV_150  2.465175e+04m  TC=0,0 
L_V150  nV_150  N_C0_107  1.385011e+05uH 
* *  Node  N_C0_93  to  Node  N_C0_108  
R_R51  N_C0_93  N_C0_108  6.483369e+07m  TC=0,0 
R_V151  N_C0_93  nV_151  4.288715e+03m  TC=0,0 
L_V151  nV_151  N_C0_108  3.221154e+02uH 
R_V152  N_C0_93  nV_152  2.462742e+02m  TC=0,0 
L_V152  nV_152  N_C0_108  3.990883e+02uH 
R_V153  N_C0_93  nV_153  -2.162525e+02m  TC=0,0 
L_V153  nV_153  N_C0_108  -1.214973e+03uH 
* *  Node  N_C0_93  to  Node  N_C0_109  
R_R52  N_C0_93  N_C0_109  9.385324e+07m  TC=0,0 
R_V154  N_C0_93  nV_154  9.172879e+04m  TC=0,0 
L_V154  nV_154  N_C0_109  6.889537e+03uH 
R_V155  N_C0_93  nV_155  8.564272e+03m  TC=0,0 
L_V155  nV_155  N_C0_109  1.387844e+04uH 
R_V156  N_C0_93  nV_156  -8.475292e+03m  TC=0,0 
L_V156  nV_156  N_C0_109  -4.761680e+04uH 
* *  Node  N_C0_93  to  Node  N_C0_110  
R_R53  N_C0_93  N_C0_110  9.385324e+07m  TC=0,0 
R_V157  N_C0_93  nV_157  9.172879e+04m  TC=0,0 
L_V157  nV_157  N_C0_110  6.889537e+03uH 
R_V158  N_C0_93  nV_158  8.564272e+03m  TC=0,0 
L_V158  nV_158  N_C0_110  1.387844e+04uH 
R_V159  N_C0_93  nV_159  -8.475292e+03m  TC=0,0 
L_V159  nV_159  N_C0_110  -4.761680e+04uH 
* *  Node  N_C0_93  to  Node  NTMP0000000028  
R_R54  N_C0_93  NTMP0000000028  6.265526e+07m  TC=0,0 
R_V160  N_C0_93  nV_160  1.708660e+05m  TC=0,0 
L_V160  nV_160  NTMP0000000028  1.283335e+04uH 
R_V161  N_C0_93  nV_161  -5.648614e+03m  TC=0,0 
L_V161  nV_161  NTMP0000000028  -9.153603e+03uH 
R_V162  N_C0_93  nV_162  5.211365e+03m  TC=0,0 
L_V162  nV_162  NTMP0000000028  2.927905e+04uH 
* *  Node  N_C0_93  to  Node  N_C0_111  
R_R55  N_C0_93  N_C0_111  -1.033125e+09m  TC=0,0 
R_V163  N_C0_93  nV_163  -2.459890e+05m  TC=0,0 
L_V163  nV_163  N_C0_111  -1.847566e+04uH 
R_V164  N_C0_93  nV_164  -6.038294e+03m  TC=0,0 
L_V164  nV_164  N_C0_111  -9.785081e+03uH 
R_V165  N_C0_93  nV_165  5.767199e+03m  TC=0,0 
L_V165  nV_165  N_C0_111  3.240190e+04uH 
* *  Node  N_C0_93  to  Node  NTMP0000000030  
R_R56  N_C0_93  NTMP0000000030  6.265526e+07m  TC=0,0 
R_V166  N_C0_93  nV_166  1.708660e+05m  TC=0,0 
L_V166  nV_166  NTMP0000000030  1.283335e+04uH 
R_V167  N_C0_93  nV_167  -5.648614e+03m  TC=0,0 
L_V167  nV_167  NTMP0000000030  -9.153603e+03uH 
R_V168  N_C0_93  nV_168  5.211365e+03m  TC=0,0 
L_V168  nV_168  NTMP0000000030  2.927905e+04uH 
* *  Node  N_C0_93  to  Node  N_C0_112  
R_R57  N_C0_93  N_C0_112  -1.033125e+09m  TC=0,0 
R_V169  N_C0_93  nV_169  -2.459890e+05m  TC=0,0 
L_V169  nV_169  N_C0_112  -1.847566e+04uH 
R_V170  N_C0_93  nV_170  -6.038294e+03m  TC=0,0 
L_V170  nV_170  N_C0_112  -9.785081e+03uH 
R_V171  N_C0_93  nV_171  5.767199e+03m  TC=0,0 
L_V171  nV_171  N_C0_112  3.240190e+04uH 
* *  Node  N_C0_93  to  Node  N_BUS_2  
R_R58  N_C0_93  N_BUS_2  -1.113685e+08m  TC=0,0 
R_V172  N_C0_93  nV_172  -8.087245e+04m  TC=0,0 
L_V172  nV_172  N_BUS_2  -6.074143e+03uH 
R_V173  N_C0_93  nV_173  5.066078e+03m  TC=0,0 
L_V173  nV_173  N_BUS_2  8.209601e+03uH 
R_V174  N_C0_93  nV_174  -5.111009e+03m  TC=0,0 
L_V174  nV_174  N_BUS_2  -2.871522e+04uH 
* *  Node  N_C0_93  to  Node  N_C0_114  
R_R59  N_C0_93  N_C0_114  9.604820e+06m  TC=0,0 
R_V175  N_C0_93  nV_175  4.559301e+03m  TC=0,0 
L_V175  nV_175  N_C0_114  3.424386e+02uH 
R_V176  N_C0_93  nV_176  6.874429e+01m  TC=0,0 
L_V176  nV_176  N_C0_114  1.114004e+02uH 
R_V177  N_C0_93  nV_177  -7.087771e+01m  TC=0,0 
L_V177  nV_177  N_C0_114  -3.982128e+02uH 
* *  Node  N_C0_93  to  Node  N_C0_115  
R_R60  N_C0_93  N_C0_115  9.691081e+06m  TC=0,0 
R_V178  N_C0_93  nV_178  4.323832e+03m  TC=0,0 
L_V178  nV_178  N_C0_115  3.247530e+02uH 
R_V179  N_C0_93  nV_179  6.811001e+01m  TC=0,0 
L_V179  nV_179  N_C0_115  1.103726e+02uH 
R_V180  N_C0_93  nV_180  -7.009216e+01m  TC=0,0 
L_V180  nV_180  N_C0_115  -3.937993e+02uH 
* *  Node  N_C0_93  to  Node  N_C0_116  
R_R61  N_C0_93  N_C0_116  9.604820e+06m  TC=0,0 
R_V181  N_C0_93  nV_181  4.559301e+03m  TC=0,0 
L_V181  nV_181  N_C0_116  3.424386e+02uH 
R_V182  N_C0_93  nV_182  6.874429e+01m  TC=0,0 
L_V182  nV_182  N_C0_116  1.114004e+02uH 
R_V183  N_C0_93  nV_183  -7.087771e+01m  TC=0,0 
L_V183  nV_183  N_C0_116  -3.982128e+02uH 
* *  Node  N_C0_93  to  Node  N_C0_117  
R_R62  N_C0_93  N_C0_117  9.691081e+06m  TC=0,0 
R_V184  N_C0_93  nV_184  4.323832e+03m  TC=0,0 
L_V184  nV_184  N_C0_117  3.247530e+02uH 
R_V185  N_C0_93  nV_185  6.811001e+01m  TC=0,0 
L_V185  nV_185  N_C0_117  1.103726e+02uH 
R_V186  N_C0_93  nV_186  -7.009216e+01m  TC=0,0 
L_V186  nV_186  N_C0_117  -3.937993e+02uH 
* *  Node  N_C0_93  to  Node  N_C0_118  
R_R63  N_C0_93  N_C0_118  2.344964e+07m  TC=0,0 
R_V187  N_C0_93  nV_187  1.337115e+04m  TC=0,0 
L_V187  nV_187  N_C0_118  1.004276e+03uH 
R_V188  N_C0_93  nV_188  1.841471e+02m  TC=0,0 
L_V188  nV_188  N_C0_118  2.984112e+02uH 
R_V189  N_C0_93  nV_189  -1.943830e+02m  TC=0,0 
L_V189  nV_189  N_C0_118  -1.092104e+03uH 
* *  Node  N_C0_93  to  Node  N_C0_119  
R_R64  N_C0_93  N_C0_119  2.344964e+07m  TC=0,0 
R_V190  N_C0_93  nV_190  1.337115e+04m  TC=0,0 
L_V190  nV_190  N_C0_119  1.004276e+03uH 
R_V191  N_C0_93  nV_191  1.841471e+02m  TC=0,0 
L_V191  nV_191  N_C0_119  2.984112e+02uH 
R_V192  N_C0_93  nV_192  -1.943830e+02m  TC=0,0 
L_V192  nV_192  N_C0_119  -1.092104e+03uH 
* *  Node  N_C0_93  to  Node  N_C0_120  
R_R65  N_C0_93  N_C0_120  5.756694e+07m  TC=0,0 
R_V193  N_C0_93  nV_193  2.409320e+04m  TC=0,0 
L_V193  nV_193  N_C0_120  1.809585e+03uH 
R_V194  N_C0_93  nV_194  3.801184e+02m  TC=0,0 
L_V194  nV_194  N_C0_120  6.159835e+02uH 
R_V195  N_C0_93  nV_195  -4.058092e+02m  TC=0,0 
L_V195  nV_195  N_C0_120  -2.279961e+03uH 
* *  Node  N_C0_93  to  Node  N_C0_121  
R_R66  N_C0_93  N_C0_121  5.756694e+07m  TC=0,0 
R_V196  N_C0_93  nV_196  2.409320e+04m  TC=0,0 
L_V196  nV_196  N_C0_121  1.809585e+03uH 
R_V197  N_C0_93  nV_197  3.801184e+02m  TC=0,0 
L_V197  nV_197  N_C0_121  6.159835e+02uH 
R_V198  N_C0_93  nV_198  -4.058092e+02m  TC=0,0 
L_V198  nV_198  N_C0_121  -2.279961e+03uH 
* *  Node  N_C0_93  to  Node  N_BUS_GND  
R_R67  N_C0_93  N_BUS_GND  -5.085236e+07m  TC=0,0 
R_V199  N_C0_93  nV_199  -5.379201e+03m  TC=0,0 
L_V199  nV_199  N_BUS_GND  -4.040194e+02uH 
R_V200  N_C0_93  nV_200  -2.216512e+02m  TC=0,0 
L_V200  nV_200  N_BUS_GND  -3.591868e+02uH 
R_V201  N_C0_93  nV_201  2.004637e+02m  TC=0,0 
L_V201  nV_201  N_BUS_GND  1.126267e+03uH 
*  Node  N_C0_94  to other nodes
* *  Node  N_C0_94  to  Node  N_C0_95  
R_R68  N_C0_94  N_C0_95  5.554138e+06m  TC=0,0 
R_V202  N_C0_94  nV_202  -2.950403e+03m  TC=0,0 
L_V202  nV_202  N_C0_95  -2.215980e+02uH 
R_V203  N_C0_94  nV_203  -1.491269e+02m  TC=0,0 
L_V203  nV_203  N_C0_95  -2.416608e+02uH 
R_V204  N_C0_94  nV_204  1.316811e+02m  TC=0,0 
L_V204  nV_204  N_C0_95  7.398249e+02uH 
* *  Node  N_C0_94  to  Node  N_C0_96  
R_R69  N_C0_94  N_C0_96  -2.067336e+07m  TC=0,0 
R_V205  N_C0_94  nV_205  -1.146148e+03m  TC=0,0 
L_V205  nV_205  N_C0_96  -8.608456e+01uH 
R_V206  N_C0_94  nV_206  -3.771596e+01m  TC=0,0 
L_V206  nV_206  N_C0_96  -6.111888e+01uH 
R_V207  N_C0_94  nV_207  3.426151e+01m  TC=0,0 
L_V207  nV_207  N_C0_96  1.924917e+02uH 
* *  Node  N_C0_94  to  Node  N_C0_97  
R_R70  N_C0_94  N_C0_97  1.945098e+07m  TC=0,0 
R_V208  N_C0_94  nV_208  -2.131134e+03m  TC=0,0 
L_V208  nV_208  N_C0_97  -1.600646e+02uH 
R_V209  N_C0_94  nV_209  -9.625436e+01m  TC=0,0 
L_V209  nV_209  N_C0_97  -1.559806e+02uH 
R_V210  N_C0_94  nV_210  8.571292e+01m  TC=0,0 
L_V210  nV_210  N_C0_97  4.815616e+02uH 
* *  Node  N_C0_94  to  Node  N_C0_98  
R_R71  N_C0_94  N_C0_98  5.776352e+05m  TC=0,0 
R_V211  N_C0_94  nV_211  1.414363e+02m  TC=0,0 
L_V211  nV_211  N_C0_98  1.062296e+01uH 
R_V212  N_C0_94  nV_212  2.066876e+00m  TC=0,0 
L_V212  nV_212  N_C0_98  3.349381e+00uH 
R_V213  N_C0_94  nV_213  2.256588e+01m  TC=0,0 
L_V213  nV_213  N_C0_98  1.267821e+02uH 
* *  Node  N_C0_94  to  Node  N_C0_99  
R_R72  N_C0_94  N_C0_99  6.102750e+05m  TC=0,0 
R_V214  N_C0_94  nV_214  1.449543e+02m  TC=0,0 
L_V214  nV_214  N_C0_99  1.088719e+01uH 
R_V215  N_C0_94  nV_215  2.079689e+00m  TC=0,0 
L_V215  nV_215  N_C0_99  3.370145e+00uH 
R_V216  N_C0_94  nV_216  2.094091e+01m  TC=0,0 
L_V216  nV_216  N_C0_99  1.176525e+02uH 
* *  Node  N_C0_94  to  Node  N_C0_100  
R_R73  N_C0_94  N_C0_100  3.109799e+07m  TC=0,0 
R_V217  N_C0_94  nV_217  -2.179878e+03m  TC=0,0 
L_V217  nV_217  N_C0_100  -1.637256e+02uH 
R_V218  N_C0_94  nV_218  -6.711893e+01m  TC=0,0 
L_V218  nV_218  N_C0_100  -1.087665e+02uH 
R_V219  N_C0_94  nV_219  6.138096e+01m  TC=0,0 
L_V219  nV_219  N_C0_100  3.448571e+02uH 
* *  Node  N_C0_94  to  Node  N_C0_101  
R_R74  N_C0_94  N_C0_101  -2.337067e+06m  TC=0,0 
R_V220  N_C0_94  nV_220  -3.111387e+03m  TC=0,0 
L_V220  nV_220  N_C0_101  -2.336891e+02uH 
R_V221  N_C0_94  nV_221  -9.237294e+01m  TC=0,0 
L_V221  nV_221  N_C0_101  -1.496907e+02uH 
R_V222  N_C0_94  nV_222  8.444346e+01m  TC=0,0 
L_V222  nV_222  N_C0_101  4.744293e+02uH 
* *  Node  N_C0_94  to  Node  N_C0_102  
R_R75  N_C0_94  N_C0_102  1.686388e+07m  TC=0,0 
R_V223  N_C0_94  nV_223  -8.339208e+04m  TC=0,0 
L_V223  nV_223  N_C0_102  -6.263387e+03uH 
R_V224  N_C0_94  nV_224  4.741928e+02m  TC=0,0 
L_V224  nV_224  N_C0_102  7.684315e+02uH 
R_V225  N_C0_94  nV_225  -4.831891e+02m  TC=0,0 
L_V225  nV_225  N_C0_102  -2.714705e+03uH 
* *  Node  N_C0_94  to  Node  N_C0_103  
R_R76  N_C0_94  N_C0_103  2.916109e+07m  TC=0,0 
R_V226  N_C0_94  nV_226  -1.228267e+04m  TC=0,0 
L_V226  nV_226  N_C0_103  -9.225228e+02uH 
R_V227  N_C0_94  nV_227  -3.624026e+02m  TC=0,0 
L_V227  nV_227  N_C0_103  -5.872749e+02uH 
R_V228  N_C0_94  nV_228  3.300836e+02m  TC=0,0 
L_V228  nV_228  N_C0_103  1.854511e+03uH 
* *  Node  N_C0_94  to  Node  N_C0_104  
R_R77  N_C0_94  N_C0_104  -9.965584e+06m  TC=0,0 
R_V229  N_C0_94  nV_229  -9.527052e+03m  TC=0,0 
L_V229  nV_229  N_C0_104  -7.155548e+02uH 
R_V230  N_C0_94  nV_230  -1.468687e+02m  TC=0,0 
L_V230  nV_230  N_C0_104  -2.380014e+02uH 
R_V231  N_C0_94  nV_231  1.387966e+02m  TC=0,0 
L_V231  nV_231  N_C0_104  7.798022e+02uH 
* *  Node  N_C0_94  to  Node  NTMP0000000019  
R_R78  N_C0_94  NTMP0000000019  4.663714e+07m  TC=0,0 
R_V232  N_C0_94  nV_232  -5.411751e+05m  TC=0,0 
L_V232  nV_232  NTMP0000000019  -4.064641e+04uH 
R_V233  N_C0_94  nV_233  -2.845647e+03m  TC=0,0 
L_V233  nV_233  NTMP0000000019  -4.611383e+03uH 
R_V234  N_C0_94  nV_234  2.736578e+03m  TC=0,0 
L_V234  nV_234  NTMP0000000019  1.537494e+04uH 
* *  Node  N_C0_94  to  Node  N_C0_105  
R_R79  N_C0_94  N_C0_105  3.625864e+07m  TC=0,0 
R_V235  N_C0_94  nV_235  4.747573e+04m  TC=0,0 
L_V235  nV_235  N_C0_105  3.565792e+03uH 
R_V236  N_C0_94  nV_236  7.189203e+02m  TC=0,0 
L_V236  nV_236  N_C0_105  1.165013e+03uH 
R_V237  N_C0_94  nV_237  -6.804217e+02m  TC=0,0 
L_V237  nV_237  N_C0_105  -3.822818e+03uH 
* *  Node  N_C0_94  to  Node  NTMP0000000021  
R_R80  N_C0_94  NTMP0000000021  4.519926e+07m  TC=0,0 
R_V238  N_C0_94  nV_238  2.219154e+05m  TC=0,0 
L_V238  nV_238  NTMP0000000021  1.666755e+04uH 
R_V239  N_C0_94  nV_239  -1.088767e+04m  TC=0,0 
L_V239  nV_239  NTMP0000000021  -1.764352e+04uH 
R_V240  N_C0_94  nV_240  1.243140e+04m  TC=0,0 
L_V240  nV_240  NTMP0000000021  6.984343e+04uH 
* *  Node  N_C0_94  to  Node  N_C0_106  
R_R81  N_C0_94  N_C0_106  -1.865398e+08m  TC=0,0 
R_V241  N_C0_94  nV_241  -4.166256e+04m  TC=0,0 
L_V241  nV_241  N_C0_106  -3.129179e+03uH 
R_V242  N_C0_94  nV_242  -6.010136e+02m  TC=0,0 
L_V242  nV_242  N_C0_106  -9.739451e+02uH 
R_V243  N_C0_94  nV_243  5.779586e+02m  TC=0,0 
L_V243  nV_243  N_C0_106  3.247149e+03uH 
* *  Node  N_C0_94  to  Node  N_C0_107  
R_R82  N_C0_94  N_C0_107  -1.029606e+08m  TC=0,0 
R_V244  N_C0_94  nV_244  -7.836859e+04m  TC=0,0 
L_V244  nV_244  N_C0_107  -5.886084e+03uH 
R_V245  N_C0_94  nV_245  -5.160493e+03m  TC=0,0 
L_V245  nV_245  N_C0_107  -8.362601e+03uH 
R_V246  N_C0_94  nV_246  5.080331e+03m  TC=0,0 
L_V246  nV_246  N_C0_107  2.854286e+04uH 
* *  Node  N_C0_94  to  Node  N_C0_108  
R_R83  N_C0_94  N_C0_108  -6.171117e+07m  TC=0,0 
R_V247  N_C0_94  nV_247  -9.176575e+04m  TC=0,0 
L_V247  nV_247  N_C0_108  -6.892313e+03uH 
R_V248  N_C0_94  nV_248  -8.146129e+02m  TC=0,0 
L_V248  nV_248  N_C0_108  -1.320084e+03uH 
R_V249  N_C0_94  nV_249  7.750516e+02m  TC=0,0 